@<TRIPOS>MOLECULE
Built with Packmol
12534 8356
SMALL
USER_CHARGES


@<TRIPOS>ATOM
1 O 44.458547 15.026937 28.899088 O 0.0 **** 0.0
2 H 45.281713 15.368928 28.445765 H 0.0 **** 0.0
3 H 43.663482 15.542505 28.579517 H 0.0 **** 0.0
4 O 31.595478 24.011333 41.711363 O 0.0 **** 0.0
5 H 31.901233 23.906653 42.657734 H 0.0 **** 0.0
6 H 30.949969 23.281238 41.48699 H 0.0 **** 0.0
7 O 40.981935 23.971666 10.583039 O 0.0 **** 0.0
8 H 41.968878 24.121723 10.642122 H 0.0 **** 0.0
9 H 40.506926 24.84929 10.647886 H 0.0 **** 0.0
10 O 39.641194 44.947324 21.556723 O 0.0 **** 0.0
11 H 39.971934 45.607417 22.231223 H 0.0 **** 0.0
12 H 40.349818 44.790323 20.868781 H 0.0 **** 0.0
13 O 13.053165 4.835465 33.742593 O 0.0 **** 0.0
14 H 12.579713 5.71617 33.758906 H 0.0 **** 0.0
15 H 14.041441 4.98834 33.741499 H 0.0 **** 0.0
16 O 34.085856 18.739591 20.54011 O 0.0 **** 0.0
17 H 33.345669 18.110418 20.302775 H 0.0 **** 0.0
18 H 33.743454 19.679001 20.521877 H 0.0 **** 0.0
19 O 30.197311 12.796494 15.506863 O 0.0 **** 0.0
20 H 30.277762 13.64484 16.030217 H 0.0 **** 0.0
21 H 29.273069 12.428441 15.608727 H 0.0 **** 0.0
22 O 24.462017 16.056108 29.823963 O 0.0 **** 0.0
23 H 24.300046 16.581044 28.988337 H 0.0 **** 0.0
24 H 23.704079 15.42037 29.97035 H 0.0 **** 0.0
25 O 3.157946 11.162138 27.70535 O 0.0 **** 0.0
26 H 3.947066 11.365471 28.285013 H 0.0 **** 0.0
27 H 2.831767 10.236845 27.899007 H 0.0 **** 0.0
28 O 32.667018 41.184331 37.506807 O 0.0 **** 0.0
29 H 33.440078 40.7425 37.962028 H 0.0 **** 0.0
30 H 32.673459 42.16277 37.713397 H 0.0 **** 0.0
31 O 34.285771 31.35236 43.31714 O 0.0 **** 0.0
32 H 33.29205 31.46452 43.317826 H 0.0 **** 0.0
33 H 34.517254 30.429889 43.626211 H 0.0 **** 0.0
34 O 31.092462 12.719412 42.886223 O 0.0 **** 0.0
35 H 31.002562 13.673778 42.601325 H 0.0 **** 0.0
36 H 31.601825 12.674733 43.745651 H 0.0 **** 0.0
37 O 19.504327 39.974873 18.546977 O 0.0 **** 0.0
38 H 20.418488 39.828795 18.925174 H 0.0 **** 0.0
39 H 19.241093 40.931563 18.671537 H 0.0 **** 0.0
40 O 42.776731 25.642305 38.106756 O 0.0 **** 0.0
41 H 41.964538 25.060572 38.062122 H 0.0 **** 0.0
42 H 43.596781 25.069973 38.110951 H 0.0 **** 0.0
43 O 11.839474 28.789669 38.882925 O 0.0 **** 0.0
44 H 12.093163 28.626147 37.929528 H 0.0 **** 0.0
45 H 11.104346 29.466585 38.920787 H 0.0 **** 0.0
46 O 32.824148 31.362128 14.563624 O 0.0 **** 0.0
47 H 33.779668 31.525367 14.317865 H 0.0 **** 0.0
48 H 32.358594 32.237913 14.691381 H 0.0 **** 0.0
49 O 27.400995 44.401763 41.845392 O 0.0 **** 0.0
50 H 28.014337 45.169286 42.031894 H 0.0 **** 0.0
51 H 26.536079 44.747205 41.481176 H 0.0 **** 0.0
52 O 25.781595 10.663496 6.949696 O 0.0 **** 0.0
53 H 24.866257 10.322778 6.734913 H 0.0 **** 0.0
54 H 25.707265 11.484323 7.516072 H 0.0 **** 0.0
55 O 33.301685 26.799677 40.51955 O 0.0 **** 0.0
56 H 34.27272 26.759255 40.755179 H 0.0 **** 0.0
57 H 32.894165 25.893027 40.628985 H 0.0 **** 0.0
58 O 42.126646 32.613779 24.259462 O 0.0 **** 0.0
59 H 42.393987 31.653825 24.343603 H 0.0 **** 0.0
60 H 41.268213 32.677278 23.75042 H 0.0 **** 0.0
61 O 4.680338 9.375044 16.870661 O 0.0 **** 0.0
62 H 5.186599 8.515523 16.800045 H 0.0 **** 0.0
63 H 3.705763 9.20031 16.730182 H 0.0 **** 0.0
64 O 32.61156 13.778542 24.054432 O 0.0 **** 0.0
65 H 33.232609 14.542413 23.878753 H 0.0 **** 0.0
66 H 31.692543 14.130365 24.232452 H 0.0 **** 0.0
67 O 36.600225 20.913875 8.149961 O 0.0 **** 0.0
68 H 37.362177 21.524259 8.366576 H 0.0 **** 0.0
69 H 36.931277 19.97142 8.10256 H 0.0 **** 0.0
70 O 20.906538 38.631894 14.146809 O 0.0 **** 0.0
71 H 20.188799 39.286044 13.908059 H 0.0 **** 0.0
72 H 20.696659 38.214905 15.031193 H 0.0 **** 0.0
73 O 3.644749 40.03737 27.999066 O 0.0 **** 0.0
74 H 3.378625 39.731792 28.913322 H 0.0 **** 0.0
75 H 3.253499 40.940599 27.822534 H 0.0 **** 0.0
76 O 46.931614 8.178301 30.741393 O 0.0 **** 0.0
77 H 46.361509 7.852236 31.495531 H 0.0 **** 0.0
78 H 46.414925 8.836043 30.193241 H 0.0 **** 0.0
79 O 47.276752 13.516045 36.432833 O 0.0 **** 0.0
80 H 46.358622 13.242176 36.719359 H 0.0 **** 0.0
81 H 47.930474 12.801148 36.681093 H 0.0 **** 0.0
82 O 23.435043 15.848933 5.128777 O 0.0 **** 0.0
83 H 24.399564 15.588694 5.17393 H 0.0 **** 0.0
84 H 22.909716 15.109521 4.70763 H 0.0 **** 0.0
85 O 35.338727 18.809295 28.028945 O 0.0 **** 0.0
86 H 34.825002 19.618526 28.314071 H 0.0 **** 0.0
87 H 35.320473 18.128004 28.760774 H 0.0 **** 0.0
88 O 36.159569 15.25992 4.921963 O 0.0 **** 0.0
89 H 37.016617 14.976105 4.491869 H 0.0 **** 0.0
90 H 36.356613 15.886493 5.676047 H 0.0 **** 0.0
91 O 19.79246 27.398838 29.96792 O 0.0 **** 0.0
92 H 20.723653 27.463412 29.609073 H 0.0 **** 0.0
93 H 19.825481 27.176318 30.942321 H 0.0 **** 0.0
94 O 0.099118 24.45296 25.290362 O 0.0 **** 0.0
95 H 1.056482 24.234055 25.479037 H 0.0 **** 0.0
96 H 4.7e-05 25.441145 25.173147 H 0.0 **** 0.0
97 O 35.198113 13.592923 24.276386 O 0.0 **** 0.0
98 H 35.063805 13.300061 25.223094 H 0.0 **** 0.0
99 H 35.797828 12.943651 23.808573 H 0.0 **** 0.0
100 O 23.853634 1.56897 44.78463 O 0.0 **** 0.0
101 H 24.449663 1.399262 43.999766 H 0.0 **** 0.0
102 H 23.001979 1.056773 44.673265 H 0.0 **** 0.0
103 O 46.443532 13.629005 15.300113 O 0.0 **** 0.0
104 H 46.311241 12.694608 14.969257 H 0.0 **** 0.0
105 H 45.799647 13.813947 16.04259 H 0.0 **** 0.0
106 O 25.025579 30.993084 7.664451 O 0.0 **** 0.0
107 H 24.23384 31.60313 7.696951 H 0.0 **** 0.0
108 H 24.713879 30.042973 7.650446 H 0.0 **** 0.0
109 O 30.437725 42.455743 3.340131 O 0.0 **** 0.0
110 H 30.632515 43.383693 3.657981 H 0.0 **** 0.0
111 H 29.537427 42.172366 3.670621 H 0.0 **** 0.0
112 O 26.040224 42.891832 14.888204 O 0.0 **** 0.0
113 H 25.634536 42.526938 15.726257 H 0.0 **** 0.0
114 H 25.419654 42.731931 14.120488 H 0.0 **** 0.0
115 O 32.566845 35.026775 27.607407 O 0.0 **** 0.0
116 H 32.898013 35.659535 28.307411 H 0.0 **** 0.0
117 H 31.571998 35.099446 27.53626 H 0.0 **** 0.0
118 O 21.055451 28.831935 27.010126 O 0.0 **** 0.0
119 H 20.165078 29.193179 27.287257 H 0.0 **** 0.0
120 H 21.046149 28.639172 26.028893 H 0.0 **** 0.0
121 O 21.176545 29.689043 14.349797 O 0.0 **** 0.0
122 H 21.097257 29.917507 13.379446 H 0.0 **** 0.0
123 H 21.726549 28.860268 14.45319 H 0.0 **** 0.0
124 O 17.461505 22.008777 33.229669 O 0.0 **** 0.0
125 H 17.25434 21.060288 32.989848 H 0.0 **** 0.0
126 H 18.451948 22.146516 33.219049 H 0.0 **** 0.0
127 O 0.802893 14.412881 22.347728 O 0.0 **** 0.0
128 H 0.674633 15.402811 22.408149 H 0.0 **** 0.0
129 H 1.777637 14.207939 22.258643 H 0.0 **** 0.0
130 O 18.388837 3.244354 42.792777 O 0.0 **** 0.0
131 H 17.673211 3.940844 42.846111 H 0.0 **** 0.0
132 H 17.972545 2.335653 42.824829 H 0.0 **** 0.0
133 O 12.613865 15.772452 5.14761 O 0.0 **** 0.0
134 H 12.768981 16.470253 4.44827 H 0.0 **** 0.0
135 H 11.633794 15.588661 5.223405 H 0.0 **** 0.0
136 O 29.035508 14.160809 10.132343 O 0.0 **** 0.0
137 H 28.169308 13.726601 9.884907 H 0.0 **** 0.0
138 H 29.388924 14.670407 9.347823 H 0.0 **** 0.0
139 O 46.828966 47.094838 19.067685 O 0.0 **** 0.0
140 H 47.662679 47.344327 19.560372 H 0.0 **** 0.0
141 H 46.997247 46.273693 18.522281 H 0.0 **** 0.0
142 O 44.74134 30.756267 10.982811 O 0.0 **** 0.0
143 H 45.698238 31.029997 10.88544 H 0.0 **** 0.0
144 H 44.695689 29.794891 11.254354 H 0.0 **** 0.0
145 O 1.996472 4.362738 17.21687 O 0.0 **** 0.0
146 H 2.497475 3.966575 17.986359 H 0.0 **** 0.0
147 H 1.031868 4.106553 17.279895 H 0.0 **** 0.0
148 O 39.04011 23.738106 29.958049 O 0.0 **** 0.0
149 H 39.605676 23.532853 30.756841 H 0.0 **** 0.0
150 H 38.107842 23.413231 30.117409 H 0.0 **** 0.0
151 O 37.082702 7.302007 20.464121 O 0.0 **** 0.0
152 H 36.291877 7.913665 20.441039 H 0.0 **** 0.0
153 H 37.913904 7.824641 20.274334 H 0.0 **** 0.0
154 O 13.643342 14.400977 16.065259 O 0.0 **** 0.0
155 H 14.229299 13.591262 16.032414 H 0.0 **** 0.0
156 H 14.211938 15.223532 16.078025 H 0.0 **** 0.0
157 O 34.86776 9.223223 18.867966 O 0.0 **** 0.0
158 H 35.659169 9.819727 19.001821 H 0.0 **** 0.0
159 H 34.295662 9.239504 19.688028 H 0.0 **** 0.0
160 O 2.370832 8.271029 26.457333 O 0.0 **** 0.0
161 H 1.706631 8.49248 27.171377 H 0.0 **** 0.0
162 H 2.523153 9.075281 25.882842 H 0.0 **** 0.0
163 O 20.769666 1.311341 48.003535 O 0.0 **** 0.0
164 H 21.266673 0.44356 48.004716 H 0.0 **** 0.0
165 H 21.422205 2.069129 47.999949 H 0.0 **** 0.0
166 O 20.706459 15.27314 41.651503 O 0.0 **** 0.0
167 H 20.324012 14.783907 42.435371 H 0.0 **** 0.0
168 H 20.300898 16.185675 41.597994 H 0.0 **** 0.0
169 O 8.628067 15.464436 27.233852 O 0.0 **** 0.0
170 H 8.289781 14.920139 28.001554 H 0.0 **** 0.0
171 H 8.524361 16.436753 27.443394 H 0.0 **** 0.0
172 O 33.851899 39.309426 11.128418 O 0.0 **** 0.0
173 H 34.083561 38.336682 11.14118 H 0.0 **** 0.0
174 H 34.690243 39.852353 11.178135 H 0.0 **** 0.0
175 O 6.940949 8.287312 19.524083 O 0.0 **** 0.0
176 H 7.125051 9.012042 20.188114 H 0.0 **** 0.0
177 H 6.550946 7.495613 19.994373 H 0.0 **** 0.0
178 O 24.587935 46.372824 41.380303 O 0.0 **** 0.0
179 H 24.161743 45.477572 41.250123 H 0.0 **** 0.0
180 H 23.888975 47.040607 41.636397 H 0.0 **** 0.0
181 O 42.297318 37.156039 9.614671 O 0.0 **** 0.0
182 H 41.506814 36.698452 10.021832 H 0.0 **** 0.0
183 H 42.454406 38.027123 10.080074 H 0.0 **** 0.0
184 O 9.216315 45.664028 14.958982 O 0.0 **** 0.0
185 H 9.223738 45.529437 15.949887 H 0.0 **** 0.0
186 H 9.22922 44.774736 14.501755 H 0.0 **** 0.0
187 O 32.595112 28.492578 24.517626 O 0.0 **** 0.0
188 H 33.24125 28.759883 23.802701 H 0.0 **** 0.0
189 H 32.57035 29.198619 25.225408 H 0.0 **** 0.0
190 O 41.555867 5.847993 0.097707 O 0.0 **** 0.0
191 H 40.590634 5.586693 0.108254 H 0.0 **** 0.0
192 H 42.049082 5.329755 0.796442 H 0.0 **** 0.0
193 O 25.075058 33.951535 26.562262 O 0.0 **** 0.0
194 H 24.755619 34.899172 26.559915 H 0.0 **** 0.0
195 H 26.07311 33.936422 26.623301 H 0.0 **** 0.0
196 O 42.396477 21.955587 26.408224 O 0.0 **** 0.0
197 H 42.88988 21.105443 26.592269 H 0.0 **** 0.0
198 H 42.415825 22.535215 27.222914 H 0.0 **** 0.0
199 O 15.199376 1.203782 16.964125 O 0.0 **** 0.0
200 H 15.423098 0.239255 16.823772 H 0.0 **** 0.0
201 H 16.033195 1.752103 16.899674 H 0.0 **** 0.0
202 O 10.690618 34.978296 10.2822 O 0.0 **** 0.0
203 H 10.834932 34.627662 11.207561 H 0.0 **** 0.0
204 H 9.709629 35.059863 10.105933 H 0.0 **** 0.0
205 O 11.376477 5.004848 37.907337 O 0.0 **** 0.0
206 H 10.964065 4.324184 38.512875 H 0.0 **** 0.0
207 H 10.688984 5.336071 37.261035 H 0.0 **** 0.0
208 O 36.773168 2.335299 10.126824 O 0.0 **** 0.0
209 H 36.201039 1.540496 10.32936 H 0.0 **** 0.0
210 H 36.190865 3.129615 9.953476 H 0.0 **** 0.0
211 O 23.634994 17.864333 30.765877 O 0.0 **** 0.0
212 H 22.777 17.569371 30.345273 H 0.0 **** 0.0
213 H 23.823409 17.299998 31.569673 H 0.0 **** 0.0
214 O 28.385313 21.860544 42.571067 O 0.0 **** 0.0
215 H 27.782205 21.997879 41.785279 H 0.0 **** 0.0
216 H 28.502455 22.726857 43.056703 H 0.0 **** 0.0
217 O 17.322613 0.799199 36.460803 O 0.0 **** 0.0
218 H 17.426802 1.739958 36.783575 H 0.0 **** 0.0
219 H 16.96017 0.804846 35.52878 H 0.0 **** 0.0
220 O 24.633711 9.120004 44.093574 O 0.0 **** 0.0
221 H 23.852474 8.596283 43.753797 H 0.0 **** 0.0
222 H 24.50115 9.324943 45.063363 H 0.0 **** 0.0
223 O 37.832466 11.923475 18.375162 O 0.0 **** 0.0
224 H 37.454042 11.005397 18.493446 H 0.0 **** 0.0
225 H 37.143409 12.516917 17.959122 H 0.0 **** 0.0
226 O 4.88998 42.64159 32.294286 O 0.0 **** 0.0
227 H 5.06587 41.669289 32.448416 H 0.0 **** 0.0
228 H 5.756594 43.140623 32.291042 H 0.0 **** 0.0
229 O 13.053721 34.854845 11.753834 O 0.0 **** 0.0
230 H 13.960634 35.271381 11.69005 H 0.0 **** 0.0
231 H 12.511854 35.33965 12.440425 H 0.0 **** 0.0
232 O 37.11403 38.14933 38.070437 O 0.0 **** 0.0
233 H 36.456571 37.5632 37.596872 H 0.0 **** 0.0
234 H 37.775675 37.580769 38.55934 H 0.0 **** 0.0
235 O 9.532845 29.211104 33.176969 O 0.0 **** 0.0
236 H 10.289834 28.786483 32.680252 H 0.0 **** 0.0
237 H 9.89668 29.812157 33.888603 H 0.0 **** 0.0
238 O 40.124829 2.438893 47.026074 O 0.0 **** 0.0
239 H 39.441646 3.041267 47.438953 H 0.0 **** 0.0
240 H 40.407882 2.81221 46.14257 H 0.0 **** 0.0
241 O 33.17849 38.697501 25.649155 O 0.0 **** 0.0
242 H 33.750942 39.489702 25.437544 H 0.0 **** 0.0
243 H 32.22614 38.905298 25.425744 H 0.0 **** 0.0
244 O 43.689411 24.772866 17.7143 O 0.0 **** 0.0
245 H 42.997565 24.912234 17.005787 H 0.0 **** 0.0
246 H 43.923303 25.65216 18.129268 H 0.0 **** 0.0
247 O 23.851048 5.128432 5.468333 O 0.0 **** 0.0
248 H 23.755389 6.123821 5.457682 H 0.0 **** 0.0
249 H 22.954429 4.70896 5.610389 H 0.0 **** 0.0
250 O 37.401887 24.643157 27.406938 O 0.0 **** 0.0
251 H 36.628214 24.724347 26.778527 H 0.0 **** 0.0
252 H 37.372071 23.751536 27.858807 H 0.0 **** 0.0
253 O 47.864805 24.567462 5.621971 O 0.0 **** 0.0
254 H 47.140704 23.981921 5.257441 H 0.0 **** 0.0
255 H 47.85132 25.448149 5.148397 H 0.0 **** 0.0
256 O 41.084453 30.430971 40.683531 O 0.0 **** 0.0
257 H 40.728034 29.68888 40.11579 H 0.0 **** 0.0
258 H 40.826702 30.274414 41.637008 H 0.0 **** 0.0
259 O 22.744338 37.485243 29.05698 O 0.0 **** 0.0
260 H 22.130508 37.718638 28.30279 H 0.0 **** 0.0
261 H 22.554925 38.081108 29.837448 H 0.0 **** 0.0
262 O 24.679469 4.41252 43.784496 O 0.0 **** 0.0
263 H 24.208546 4.279562 42.912363 H 0.0 **** 0.0
264 H 24.494268 3.634765 44.385214 H 0.0 **** 0.0
265 O 36.314167 3.290873 24.416877 O 0.0 **** 0.0
266 H 36.819563 3.42319 25.269597 H 0.0 **** 0.0
267 H 36.794507 2.626282 23.844465 H 0.0 **** 0.0
268 O 3.54906 30.413333 8.171229 O 0.0 **** 0.0
269 H 3.075334 30.001564 7.39271 H 0.0 **** 0.0
270 H 3.308477 29.919531 9.006898 H 0.0 **** 0.0
271 O 9.589154 42.725302 2.299997 O 0.0 **** 0.0
272 H 9.29992 43.095476 1.417173 H 0.0 **** 0.0
273 H 9.251098 41.789019 2.39568 H 0.0 **** 0.0
274 O 7.908548 20.726905 8.929636 O 0.0 **** 0.0
275 H 8.870443 20.525345 9.114557 H 0.0 **** 0.0
276 H 7.406212 20.775229 9.792993 H 0.0 **** 0.0
277 O 44.178716 25.149249 7.084126 O 0.0 **** 0.0
278 H 43.293981 24.870693 7.45791 H 0.0 **** 0.0
279 H 44.051519 25.931757 6.474564 H 0.0 **** 0.0
280 O 41.019227 45.928934 46.227487 O 0.0 **** 0.0
281 H 40.15432 46.430884 46.220855 H 0.0 **** 0.0
282 H 40.843291 44.95954 46.056062 H 0.0 **** 0.0
283 O 5.378598 11.181922 24.468144 O 0.0 **** 0.0
284 H 4.961981 11.974743 24.913037 H 0.0 **** 0.0
285 H 4.821578 10.370201 24.643928 H 0.0 **** 0.0
286 O 30.521486 39.444727 2.465935 O 0.0 **** 0.0
287 H 30.688761 40.42897 2.523807 H 0.0 **** 0.0
288 H 30.409935 39.181414 1.507663 H 0.0 **** 0.0
289 O 25.626599 14.403059 39.906393 O 0.0 **** 0.0
290 H 24.716506 14.054683 40.130957 H 0.0 **** 0.0
291 H 26.192626 14.412442 40.730764 H 0.0 **** 0.0
292 O 11.685981 47.666686 45.186715 O 0.0 **** 0.0
293 H 11.824346 46.752216 45.567059 H 0.0 **** 0.0
294 H 10.778377 48.00002 45.442069 H 0.0 **** 0.0
295 O 30.264219 46.877473 46.035215 O 0.0 **** 0.0
296 H 29.666938 47.679117 46.009033 H 0.0 **** 0.0
297 H 29.709685 46.046874 45.98362 H 0.0 **** 0.0
298 O 28.07917 44.144242 37.575861 O 0.0 **** 0.0
299 H 28.3712 43.551922 38.32682 H 0.0 **** 0.0
300 H 27.326504 43.709196 37.081604 H 0.0 **** 0.0
301 O 46.285577 18.748218 35.132511 O 0.0 **** 0.0
302 H 46.334163 19.080461 36.074487 H 0.0 **** 0.0
303 H 45.844239 19.437786 34.558247 H 0.0 **** 0.0
304 O 1.962117 28.579107 1.053402 O 0.0 **** 0.0
305 H 2.22673 27.638118 0.842255 H 0.0 **** 0.0
306 H 0.98466 28.697664 0.878517 H 0.0 **** 0.0
307 O 14.461735 7.936411 18.282897 O 0.0 **** 0.0
308 H 14.53841 8.865891 17.921993 H 0.0 **** 0.0
309 H 13.513663 7.758454 18.546625 H 0.0 **** 0.0
310 O 43.863964 16.746887 37.683868 O 0.0 **** 0.0
311 H 43.739559 16.056074 38.396162 H 0.0 **** 0.0
312 H 44.769762 16.64267 37.273097 H 0.0 **** 0.0
313 O 23.214687 29.615659 45.844908 O 0.0 **** 0.0
314 H 23.891703 30.247639 45.467665 H 0.0 **** 0.0
315 H 23.157654 28.803099 45.264773 H 0.0 **** 0.0
316 O 7.964746 28.509118 28.417461 O 0.0 **** 0.0
317 H 8.183437 29.403117 28.808617 H 0.0 **** 0.0
318 H 8.806986 28.062336 28.115665 H 0.0 **** 0.0
319 O 18.928448 24.806166 47.646021 O 0.0 **** 0.0
320 H 18.513296 23.962096 47.985516 H 0.0 **** 0.0
321 H 18.312714 25.23902 46.987559 H 0.0 **** 0.0
322 O 21.996632 20.234936 6.078945 O 0.0 **** 0.0
323 H 22.841849 20.136012 6.604191 H 0.0 **** 0.0
324 H 22.216602 20.326719 5.107733 H 0.0 **** 0.0
325 O 28.561622 19.846996 33.760189 O 0.0 **** 0.0
326 H 28.39123 20.612148 34.381133 H 0.0 **** 0.0
327 H 27.878452 19.133367 33.91535 H 0.0 **** 0.0
328 O 28.740982 34.881002 3.798103 O 0.0 **** 0.0
329 H 29.581063 34.504445 3.407549 H 0.0 **** 0.0
330 H 27.99428 34.227149 3.675723 H 0.0 **** 0.0
331 O 26.036149 9.272507 27.509875 O 0.0 **** 0.0
332 H 25.49143 9.596498 28.283421 H 0.0 **** 0.0
333 H 25.515618 8.588269 26.999062 H 0.0 **** 0.0
334 O 46.003543 17.03012 39.947069 O 0.0 **** 0.0
335 H 46.017741 17.566107 40.791213 H 0.0 **** 0.0
336 H 46.182863 16.069443 40.159216 H 0.0 **** 0.0
337 O 2.67723 19.946252 1.326063 O 0.0 **** 0.0
338 H 3.298089 19.579646 0.6331 H 0.0 **** 0.0
339 H 2.492707 20.909755 1.131959 H 0.0 **** 0.0
340 O 6.830945 14.163361 33.615328 O 0.0 **** 0.0
341 H 7.828681 14.101678 33.643267 H 0.0 **** 0.0
342 H 6.558665 15.121354 33.52491 H 0.0 **** 0.0
343 O 45.099675 0.977257 7.823903 O 0.0 **** 0.0
344 H 46.026185 1.00831 8.198973 H 0.0 **** 0.0
345 H 44.902448 0.052234 7.499101 H 0.0 **** 0.0
346 O 27.619109 42.100619 40.836388 O 0.0 **** 0.0
347 H 27.51393 42.899493 40.244104 H 0.0 **** 0.0
348 H 26.96184 42.154268 41.588174 H 0.0 **** 0.0
349 O 12.005838 35.504466 16.363726 O 0.0 **** 0.0
350 H 12.590691 35.232519 17.127961 H 0.0 **** 0.0
351 H 11.471647 36.309196 16.622789 H 0.0 **** 0.0
352 O 9.744285 18.669688 38.058948 O 0.0 **** 0.0
353 H 8.759442 18.836591 38.011088 H 0.0 **** 0.0
354 H 9.918391 17.861526 38.62164 H 0.0 **** 0.0
355 O 3.172786 36.278096 0.708762 O 0.0 **** 0.0
356 H 3.688263 35.513313 0.32217 H 0.0 **** 0.0
357 H 3.685477 36.67443 1.470425 H 0.0 **** 0.0
358 O 29.266638 14.003267 12.386334 O 0.0 **** 0.0
359 H 29.163882 13.008889 12.359567 H 0.0 **** 0.0
360 H 30.238746 14.237927 12.388239 H 0.0 **** 0.0
361 O 5.696778 23.846293 32.414182 O 0.0 **** 0.0
362 H 6.429176 24.257514 32.956909 H 0.0 **** 0.0
363 H 5.847345 22.860148 32.344104 H 0.0 **** 0.0
364 O 22.476093 3.007411 1.806249 O 0.0 **** 0.0
365 H 22.456203 4.004304 1.729616 H 0.0 **** 0.0
366 H 22.663332 2.60784 0.908837 H 0.0 **** 0.0
367 O 32.699378 5.023723 33.230566 O 0.0 **** 0.0
368 H 32.517924 4.043974 33.315595 H 0.0 **** 0.0
369 H 32.733209 5.273644 32.262859 H 0.0 **** 0.0
370 O 45.68636 8.153914 34.859836 O 0.0 **** 0.0
371 H 46.1259 8.658388 34.116618 H 0.0 **** 0.0
372 H 44.74332 8.469673 34.964879 H 0.0 **** 0.0
373 O 46.749145 25.860619 7.008102 O 0.0 **** 0.0
374 H 47.238497 25.315985 7.689257 H 0.0 **** 0.0
375 H 45.991078 26.341926 7.448261 H 0.0 **** 0.0
376 O 6.230734 37.155559 36.223557 O 0.0 **** 0.0
377 H 6.788581 36.348741 36.418275 H 0.0 **** 0.0
378 H 6.801788 37.862921 35.806905 H 0.0 **** 0.0
379 O 46.281465 32.343767 8.05646 O 0.0 **** 0.0
380 H 47.161348 32.136893 8.48433 H 0.0 **** 0.0
381 H 45.988232 31.563855 7.503455 H 0.0 **** 0.0
382 O 17.157948 45.367575 11.599277 O 0.0 **** 0.0
383 H 16.490295 44.938183 10.991063 H 0.0 **** 0.0
384 H 17.540828 46.177606 11.155074 H 0.0 **** 0.0
385 O 38.917463 32.738663 0.944419 O 0.0 **** 0.0
386 H 38.88228 31.782971 1.236787 H 0.0 **** 0.0
387 H 38.600861 32.809671 -0.001511 H 0.0 **** 0.0
388 O 21.377066 31.289102 7.960514 O 0.0 **** 0.0
389 H 20.633739 31.561692 7.349596 H 0.0 **** 0.0
390 H 22.009257 32.054912 8.078549 H 0.0 **** 0.0
391 O 34.769101 32.271182 39.752693 O 0.0 **** 0.0
392 H 35.622345 32.741121 39.526429 H 0.0 **** 0.0
393 H 34.020125 32.665418 39.220079 H 0.0 **** 0.0
394 O 44.749541 5.734817 8.688558 O 0.0 **** 0.0
395 H 44.323405 5.57042 9.57819 H 0.0 **** 0.0
396 H 44.220139 6.418921 8.186762 H 0.0 **** 0.0
397 O 31.10762 1.978083 45.213562 O 0.0 **** 0.0
398 H 31.565748 1.406412 44.532845 H 0.0 **** 0.0
399 H 31.734966 2.691241 45.52646 H 0.0 **** 0.0
400 O 7.264066 22.404234 29.176003 O 0.0 **** 0.0
401 H 8.134051 22.842504 29.402074 H 0.0 **** 0.0
402 H 7.335652 21.419557 29.335219 H 0.0 **** 0.0
403 O 33.569888 9.691704 42.476078 O 0.0 **** 0.0
404 H 34.239954 10.070324 43.114609 H 0.0 **** 0.0
405 H 33.736094 8.712389 42.360403 H 0.0 **** 0.0
406 O 36.374642 22.824323 3.417429 O 0.0 **** 0.0
407 H 37.194277 22.251619 3.433916 H 0.0 **** 0.0
408 H 36.237734 23.183755 2.494321 H 0.0 **** 0.0
409 O 43.211461 13.7033 43.734436 O 0.0 **** 0.0
410 H 43.733731 13.182376 44.409666 H 0.0 **** 0.0
411 H 42.247251 13.719571 43.999194 H 0.0 **** 0.0
412 O 20.86847 6.273437 27.675765 O 0.0 **** 0.0
413 H 20.120176 6.334777 28.336339 H 0.0 **** 0.0
414 H 21.129666 5.31557 27.556059 H 0.0 **** 0.0
415 O 30.336226 7.359006 10.70956 O 0.0 **** 0.0
416 H 30.292616 6.767681 11.514852 H 0.0 **** 0.0
417 H 30.815243 8.205234 10.94302 H 0.0 **** 0.0
418 O 6.654257 42.654301 48.037862 O 0.0 **** 0.0
419 H 6.469912 41.676142 47.941505 H 0.0 **** 0.0
420 H 7.635697 42.81966 47.940421 H 0.0 **** 0.0
421 O 31.116707 6.950687 1.906621 O 0.0 **** 0.0
422 H 32.046202 6.632965 1.719124 H 0.0 **** 0.0
423 H 31.088033 7.948745 1.85075 H 0.0 **** 0.0
424 O 11.059537 34.21659 22.960222 O 0.0 **** 0.0
425 H 10.825227 35.188649 22.976418 H 0.0 **** 0.0
426 H 10.765443 33.7886 23.814855 H 0.0 **** 0.0
427 O 22.68063 45.522523 0.478737 O 0.0 **** 0.0
428 H 21.807578 45.610741 -0.000908 H 0.0 **** 0.0
429 H 23.245361 44.836758 0.019534 H 0.0 **** 0.0
430 O 13.143202 28.661139 43.399955 O 0.0 **** 0.0
431 H 13.370061 27.764631 43.780577 H 0.0 **** 0.0
432 H 12.226361 28.631807 43.001702 H 0.0 **** 0.0
433 O 8.928737 26.859662 20.322094 O 0.0 **** 0.0
434 H 8.579311 26.140939 19.720927 H 0.0 **** 0.0
435 H 8.469306 27.722653 20.111782 H 0.0 **** 0.0
436 O 3.942007 17.753979 35.703157 O 0.0 **** 0.0
437 H 3.188301 17.971162 36.323497 H 0.0 **** 0.0
438 H 4.700515 17.362817 36.224425 H 0.0 **** 0.0
439 O 28.871294 4.496018 6.238927 O 0.0 **** 0.0
440 H 29.206304 5.281849 6.758831 H 0.0 **** 0.0
441 H 29.273794 4.505941 5.323527 H 0.0 **** 0.0
442 O 33.046036 38.030882 35.343126 O 0.0 **** 0.0
443 H 32.140731 38.172381 35.743704 H 0.0 **** 0.0
444 H 33.547494 37.354917 35.883195 H 0.0 **** 0.0
445 O 3.622401 24.458829 1.492022 O 0.0 **** 0.0
446 H 3.214002 24.59548 2.394574 H 0.0 **** 0.0
447 H 4.507365 24.922912 1.452931 H 0.0 **** 0.0
448 O 44.783068 43.194783 17.75625 O 0.0 **** 0.0
449 H 44.45392 43.121477 16.814788 H 0.0 **** 0.0
450 H 44.958974 42.280006 18.119983 H 0.0 **** 0.0
451 O 17.342815 24.724502 7.409264 O 0.0 **** 0.0
452 H 18.048065 24.867323 6.714795 H 0.0 **** 0.0
453 H 16.909661 25.598646 7.629067 H 0.0 **** 0.0
454 O 37.234094 8.052303 18.187414 O 0.0 **** 0.0
455 H 36.320554 7.888106 17.815196 H 0.0 **** 0.0
456 H 37.879942 8.190841 17.436581 H 0.0 **** 0.0
457 O 33.148407 8.17069 22.763972 O 0.0 **** 0.0
458 H 33.793348 7.40971 22.693101 H 0.0 **** 0.0
459 H 32.219079 7.835476 22.608912 H 0.0 **** 0.0
460 O 47.619238 17.794634 4.857066 O 0.0 **** 0.0
461 H 47.402999 18.745406 4.634947 H 0.0 **** 0.0
462 H 47.365952 17.20696 4.088594 H 0.0 **** 0.0
463 O 33.410773 31.761074 7.569621 O 0.0 **** 0.0
464 H 33.076057 30.821888 7.492439 H 0.0 **** 0.0
465 H 34.190012 31.888654 6.955965 H 0.0 **** 0.0
466 O 44.14783 34.528263 39.569902 O 0.0 **** 0.0
467 H 43.771573 34.812916 40.451642 H 0.0 **** 0.0
468 H 44.947459 33.946983 39.720794 H 0.0 **** 0.0
469 O 6.738705 17.008558 39.364517 O 0.0 **** 0.0
470 H 7.593152 17.527423 39.392127 H 0.0 **** 0.0
471 H 6.001794 17.597418 39.032448 H 0.0 **** 0.0
472 O -0.002659 6.183927 39.613211 O 0.0 **** 0.0
473 H 0.075174 7.152223 39.850715 H 0.0 **** 0.0
474 H 0.819902 5.700236 39.912375 H 0.0 **** 0.0
475 O 28.853523 16.879866 12.291192 O 0.0 **** 0.0
476 H 29.419202 17.703736 12.327339 H 0.0 **** 0.0
477 H 28.985096 16.348282 13.127953 H 0.0 **** 0.0
478 O 25.505061 25.214831 0.669792 O 0.0 **** 0.0
479 H 24.524415 25.278051 0.855259 H 0.0 **** 0.0
480 H 25.727369 24.289078 0.363812 H 0.0 **** 0.0
481 O 35.817892 5.235092 38.675526 O 0.0 **** 0.0
482 H 35.622936 6.101316 38.215406 H 0.0 **** 0.0
483 H 36.787503 5.013418 38.571705 H 0.0 **** 0.0
484 O 44.334897 19.389855 27.942554 O 0.0 **** 0.0
485 H 43.515146 19.842436 28.293613 H 0.0 **** 0.0
486 H 44.612106 19.821447 27.084098 H 0.0 **** 0.0
487 O 3.44941 46.697433 3.509901 O 0.0 **** 0.0
488 H 4.417791 46.706259 3.260457 H 0.0 **** 0.0
489 H 3.263008 45.907711 4.094415 H 0.0 **** 0.0
490 O 21.015815 3.722487 5.042138 O 0.0 **** 0.0
491 H 20.461148 4.553924 5.008679 H 0.0 **** 0.0
492 H 20.42668 2.923698 4.919994 H 0.0 **** 0.0
493 O 45.064929 46.829956 31.512015 O 0.0 **** 0.0
494 H 44.29959 47.186665 32.047811 H 0.0 **** 0.0
495 H 45.883233 46.789999 32.085466 H 0.0 **** 0.0
496 O 19.510956 39.201125 5.930125 O 0.0 **** 0.0
497 H 19.721995 38.825868 6.832736 H 0.0 **** 0.0
498 H 20.089034 39.99863 5.757283 H 0.0 **** 0.0
499 O 6.638529 4.051375 9.66942 O 0.0 **** 0.0
500 H 6.441627 3.190544 9.200099 H 0.0 **** 0.0
501 H 7.312411 4.570861 9.143986 H 0.0 **** 0.0
502 O 3.803057 27.573406 34.226254 O 0.0 **** 0.0
503 H 2.982474 27.04376 34.011354 H 0.0 **** 0.0
504 H 4.550028 26.950746 34.459472 H 0.0 **** 0.0
505 O -0.014129 34.721501 33.486627 O 0.0 **** 0.0
506 H 0.04878 34.173514 32.652472 H 0.0 **** 0.0
507 H 0.161669 34.140321 34.281227 H 0.0 **** 0.0
508 O 8.686499 22.64859 9.933757 O 0.0 **** 0.0
509 H 9.065645 22.71604 9.010848 H 0.0 **** 0.0
510 H 8.98819 23.432734 10.476125 H 0.0 **** 0.0
511 O 16.167912 6.225176 22.173655 O 0.0 **** 0.0
512 H 15.629645 6.272387 21.332166 H 0.0 **** 0.0
513 H 16.698449 5.377527 22.182798 H 0.0 **** 0.0
514 O 15.714938 16.165788 29.360222 O 0.0 **** 0.0
515 H 16.33087 15.378521 29.330197 H 0.0 **** 0.0
516 H 14.825187 15.879455 29.715776 H 0.0 **** 0.0
517 O 30.304309 24.270964 9.753834 O 0.0 **** 0.0
518 H 30.225996 24.837491 8.933482 H 0.0 **** 0.0
519 H 30.879207 24.736535 10.426737 H 0.0 **** 0.0
520 O 43.800193 18.125929 23.271112 O 0.0 **** 0.0
521 H 43.587884 18.028133 24.243441 H 0.0 **** 0.0
522 H 44.595241 18.722626 23.161961 H 0.0 **** 0.0
523 O 5.81767 28.793834 17.538119 O 0.0 **** 0.0
524 H 6.632216 29.373748 17.521479 H 0.0 **** 0.0
525 H 5.085239 29.232967 17.017762 H 0.0 **** 0.0
526 O 38.689753 19.45746 32.417204 O 0.0 **** 0.0
527 H 38.763056 18.966451 33.285305 H 0.0 **** 0.0
528 H 38.315514 20.370219 32.581153 H 0.0 **** 0.0
529 O 22.094493 32.504197 18.939386 O 0.0 **** 0.0
530 H 21.107793 32.341526 18.934535 H 0.0 **** 0.0
531 H 22.269886 33.488048 18.975938 H 0.0 **** 0.0
532 O 11.173557 8.974216 11.699678 O 0.0 **** 0.0
533 H 10.516386 8.220433 11.698814 H 0.0 **** 0.0
534 H 11.934577 8.75358 11.089571 H 0.0 **** 0.0
535 O 25.436763 38.73443 11.337299 O 0.0 **** 0.0
536 H 24.866174 39.326989 10.768646 H 0.0 **** 0.0
537 H 25.772453 39.251114 12.124962 H 0.0 **** 0.0
538 O 40.162384 5.759667 17.050829 O 0.0 **** 0.0
539 H 40.853534 5.926385 16.347566 H 0.0 **** 0.0
540 H 40.044028 6.584372 17.603926 H 0.0 **** 0.0
541 O 46.621011 41.915663 47.555887 O 0.0 **** 0.0
542 H 45.649493 42.147436 47.60585 H 0.0 **** 0.0
543 H 47.158012 42.632879 48.000065 H 0.0 **** 0.0
544 O 21.537189 42.400301 1.844908 O 0.0 **** 0.0
545 H 21.476327 42.206841 2.824159 H 0.0 **** 0.0
546 H 22.39317 42.880272 1.652589 H 0.0 **** 0.0
547 O 33.434434 34.068609 32.020666 O 0.0 **** 0.0
548 H 34.192316 34.711724 32.130585 H 0.0 **** 0.0
549 H 32.576053 34.575507 31.941299 H 0.0 **** 0.0
550 O 18.603804 0.217513 7.257755 O 0.0 **** 0.0
551 H 19.570213 -0.000193 7.394579 H 0.0 **** 0.0
552 H 18.418354 1.139265 7.598407 H 0.0 **** 0.0
553 O 22.251443 12.382783 29.296997 O 0.0 **** 0.0
554 H 21.348561 12.812581 29.308867 H 0.0 **** 0.0
555 H 22.489064 12.13244 28.358419 H 0.0 **** 0.0
556 O 25.163535 16.054125 14.730743 O 0.0 **** 0.0
557 H 24.914304 15.369884 14.045352 H 0.0 **** 0.0
558 H 26.155967 16.177146 14.733311 H 0.0 **** 0.0
559 O 24.927049 32.514857 9.57508 O 0.0 **** 0.0
560 H 25.212135 33.462668 9.718057 H 0.0 **** 0.0
561 H 23.93917 32.439828 9.711197 H 0.0 **** 0.0
562 O 33.642788 46.256335 37.391307 O 0.0 **** 0.0
563 H 33.801724 46.90479 38.135826 H 0.0 **** 0.0
564 H 32.679862 46.286327 37.123098 H 0.0 **** 0.0
565 O 34.657839 22.776098 40.325461 O 0.0 **** 0.0
566 H 34.226202 22.423385 39.495192 H 0.0 **** 0.0
567 H 34.742098 23.770463 40.260646 H 0.0 **** 0.0
568 O 8.420312 48.026955 20.805375 O 0.0 **** 0.0
569 H 9.350152 47.676398 20.693255 H 0.0 **** 0.0
570 H 8.139629 47.927825 21.760076 H 0.0 **** 0.0
571 O 7.319761 18.651551 8.494133 O 0.0 **** 0.0
572 H 7.136009 17.755449 8.09003 H 0.0 **** 0.0
573 H 6.457256 19.076081 8.769673 H 0.0 **** 0.0
574 O 36.380991 28.909408 27.386641 O 0.0 **** 0.0
575 H 35.418157 29.177907 27.35625 H 0.0 **** 0.0
576 H 36.540737 28.167295 26.735633 H 0.0 **** 0.0
577 O 38.656174 15.160049 12.092473 O 0.0 **** 0.0
578 H 38.024012 15.543283 11.419 H 0.0 **** 0.0
579 H 39.325546 15.855235 12.354619 H 0.0 **** 0.0
580 O 18.388862 31.282722 25.914038 O 0.0 **** 0.0
581 H 18.664228 30.322177 25.953914 H 0.0 **** 0.0
582 H 19.202662 31.863682 25.930693 H 0.0 **** 0.0
583 O 31.770171 2.68521 7.959831 O 0.0 **** 0.0
584 H 32.087743 2.556353 8.899302 H 0.0 **** 0.0
585 H 30.78832 2.501572 7.911786 H 0.0 **** 0.0
586 O 2.686836 36.861457 27.861041 O 0.0 **** 0.0
587 H 2.61777 37.817781 28.145185 H 0.0 **** 0.0
588 H 3.629266 36.660457 27.593672 H 0.0 **** 0.0
589 O 13.671336 1.408899 14.869119 O 0.0 **** 0.0
590 H 13.891639 0.503634 15.232472 H 0.0 **** 0.0
591 H 14.409378 2.045967 15.091606 H 0.0 **** 0.0
592 O 34.195291 2.820739 3.948328 O 0.0 **** 0.0
593 H 33.344233 3.342478 3.888728 H 0.0 **** 0.0
594 H 34.088462 2.083963 4.61602 H 0.0 **** 0.0
595 O 8.288597 36.640978 19.535921 O 0.0 **** 0.0
596 H 7.552933 36.184782 19.035175 H 0.0 **** 0.0
597 H 9.002552 36.9235 18.895208 H 0.0 **** 0.0
598 O 37.086548 19.004283 26.563628 O 0.0 **** 0.0
599 H 37.823843 19.660606 26.723937 H 0.0 **** 0.0
600 H 37.473399 18.141304 26.238549 H 0.0 **** 0.0
601 O 42.017161 7.739243 42.873143 O 0.0 **** 0.0
602 H 41.041873 7.855327 43.061292 H 0.0 **** 0.0
603 H 42.401341 8.607017 42.557806 H 0.0 **** 0.0
604 O 45.068204 18.814632 4.275148 O 0.0 **** 0.0
605 H 45.390735 18.331517 3.461124 H 0.0 **** 0.0
606 H 45.300784 18.285121 5.090984 H 0.0 **** 0.0
607 O 47.858417 42.672248 3.509919 O 0.0 **** 0.0
608 H 46.921821 42.536054 3.186961 H 0.0 **** 0.0
609 H 48.001267 42.147271 4.348999 H 0.0 **** 0.0
610 O 20.121912 5.635002 12.793842 O 0.0 **** 0.0
611 H 19.848934 5.586859 13.75469 H 0.0 **** 0.0
612 H 19.623163 4.943923 12.270659 H 0.0 **** 0.0
613 O 25.3288 0.782128 17.306125 O 0.0 **** 0.0
614 H 24.405318 1.164499 17.338305 H 0.0 **** 0.0
615 H 25.911621 1.262974 17.961236 H 0.0 **** 0.0
616 O 16.531182 4.819773 27.492151 O 0.0 **** 0.0
617 H 17.508641 4.739155 27.687444 H 0.0 **** 0.0
618 H 16.175843 3.932545 27.197832 H 0.0 **** 0.0
619 O 6.259595 46.22317 30.65116 O 0.0 **** 0.0
620 H 5.453466 45.631597 30.667274 H 0.0 **** 0.0
621 H 5.970305 47.180281 30.633437 H 0.0 **** 0.0
622 O 3.987333 15.666893 35.009662 O 0.0 **** 0.0
623 H 3.493028 14.799415 34.953028 H 0.0 **** 0.0
624 H 4.971689 15.490702 35.001746 H 0.0 **** 0.0
625 O 6.891391 24.54369 10.446471 O 0.0 **** 0.0
626 H 7.620152 25.181192 10.196347 H 0.0 **** 0.0
627 H 6.991875 24.282741 11.406612 H 0.0 **** 0.0
628 O 18.475942 44.743706 40.536698 O 0.0 **** 0.0
629 H 17.929587 45.440589 40.072035 H 0.0 **** 0.0
630 H 19.374324 45.120437 40.762633 H 0.0 **** 0.0
631 O 12.330231 42.527815 3.229985 O 0.0 **** 0.0
632 H 11.851333 42.22148 4.052712 H 0.0 **** 0.0
633 H 13.088134 41.905433 3.034319 H 0.0 **** 0.0
634 O 26.071613 33.915653 5.788034 O 0.0 **** 0.0
635 H 25.674796 33.348978 6.510169 H 0.0 **** 0.0
636 H 26.861859 33.447076 5.393053 H 0.0 **** 0.0
637 O 6.135535 19.852054 15.158274 O 0.0 **** 0.0
638 H 5.346817 19.416317 15.592003 H 0.0 **** 0.0
639 H 5.976005 20.836855 15.089128 H 0.0 **** 0.0
640 O 33.430754 6.639758 44.941043 O 0.0 **** 0.0
641 H 34.340377 6.33342 45.221767 H 0.0 **** 0.0
642 H 32.875881 6.823653 45.752438 H 0.0 **** 0.0
643 O 16.547244 0.97831 43.903227 O 0.0 **** 0.0
644 H 15.611097 1.321398 43.825885 H 0.0 **** 0.0
645 H 16.527687 -0.000678 44.106363 H 0.0 **** 0.0
646 O 13.247048 20.937344 19.780652 O 0.0 **** 0.0
647 H 14.025344 20.885153 19.154877 H 0.0 **** 0.0
648 H 13.517845 20.591142 20.678915 H 0.0 **** 0.0
649 O 41.573329 20.908232 43.631507 O 0.0 **** 0.0
650 H 40.685519 20.45588 43.546447 H 0.0 **** 0.0
651 H 42.299047 20.220199 43.634039 H 0.0 **** 0.0
652 O 46.148809 10.228417 32.024034 O 0.0 **** 0.0
653 H 47.124732 10.099554 31.847876 H 0.0 **** 0.0
654 H 45.918288 11.196996 31.930345 H 0.0 **** 0.0
655 O 6.022549 37.389194 9.814763 O 0.0 **** 0.0
656 H 5.163138 37.086057 10.226568 H 0.0 **** 0.0
657 H 6.051279 38.38872 9.801171 H 0.0 **** 0.0
658 O 18.283143 43.904847 6.703264 O 0.0 **** 0.0
659 H 17.505778 43.855568 6.076097 H 0.0 **** 0.0
660 H 18.764718 43.028413 6.706631 H 0.0 **** 0.0
661 O 31.713635 33.474199 7.581523 O 0.0 **** 0.0
662 H 31.448992 32.639357 7.098754 H 0.0 **** 0.0
663 H 31.920708 33.256231 8.535291 H 0.0 **** 0.0
664 O 14.426746 42.064069 27.597152 O 0.0 **** 0.0
665 H 14.139043 42.911791 27.151441 H 0.0 **** 0.0
666 H 15.378145 42.149437 27.89315 H 0.0 **** 0.0
667 O 10.725349 21.242255 19.890381 O 0.0 **** 0.0
668 H 10.518383 20.545624 20.577356 H 0.0 **** 0.0
669 H 10.002143 21.932928 19.887738 H 0.0 **** 0.0
670 O 39.605473 43.965876 11.239845 O 0.0 **** 0.0
671 H 38.797495 43.386287 11.133495 H 0.0 **** 0.0
672 H 39.324622 44.924748 11.281699 H 0.0 **** 0.0
673 O 41.543174 11.191093 42.981169 O 0.0 **** 0.0
674 H 41.151299 10.297867 43.201724 H 0.0 **** 0.0
675 H 40.927706 11.681956 42.364472 H 0.0 **** 0.0
676 O 43.436187 10.170989 19.717238 O 0.0 **** 0.0
677 H 43.879387 9.382055 20.142938 H 0.0 **** 0.0
678 H 42.450524 10.127838 19.880548 H 0.0 **** 0.0
679 O 32.445595 26.536621 32.222187 O 0.0 **** 0.0
680 H 31.713321 26.32837 31.573751 H 0.0 **** 0.0
681 H 32.935788 27.354219 31.920013 H 0.0 **** 0.0
682 O 30.582422 41.319099 14.2401 O 0.0 **** 0.0
683 H 31.573381 41.184929 14.248047 H 0.0 **** 0.0
684 H 30.125919 40.42979 14.211876 H 0.0 **** 0.0
685 O 13.847317 43.984984 3.874044 O 0.0 **** 0.0
686 H 14.15494 43.811586 2.938435 H 0.0 **** 0.0
687 H 13.113818 44.664633 3.863132 H 0.0 **** 0.0
688 O 32.918042 13.171254 41.533648 O 0.0 **** 0.0
689 H 33.770874 13.693343 41.546429 H 0.0 **** 0.0
690 H 32.30926 13.544476 40.833539 H 0.0 **** 0.0
691 O 6.798907 3.549268 32.531211 O 0.0 **** 0.0
692 H 7.156482 3.594992 33.464009 H 0.0 **** 0.0
693 H 6.251091 2.719453 32.424592 H 0.0 **** 0.0
694 O 0.753555 27.867734 20.650656 O 0.0 **** 0.0
695 H 1.115494 27.077277 21.144864 H 0.0 **** 0.0
696 H 1.196858 27.933403 19.756658 H 0.0 **** 0.0
697 O 18.685624 17.851308 48.000245 O 0.0 **** 0.0
698 H 19.560102 17.366289 47.989858 H 0.0 **** 0.0
699 H 18.83916 18.819513 47.802585 H 0.0 **** 0.0
700 O 41.695839 37.106683 30.027959 O 0.0 **** 0.0
701 H 42.384496 36.655093 29.460613 H 0.0 **** 0.0
702 H 42.149833 37.678512 30.711307 H 0.0 **** 0.0
703 O 30.035184 41.173687 39.264808 O 0.0 **** 0.0
704 H 30.296836 41.204834 38.300116 H 0.0 **** 0.0
705 H 29.282659 41.812068 39.426793 H 0.0 **** 0.0
706 O 46.844224 13.479233 -0.000744 O 0.0 **** 0.0
707 H 45.851211 13.569812 0.075311 H 0.0 **** 0.0
708 H 47.202626 13.038062 0.822043 H 0.0 **** 0.0
709 O 41.091627 23.025076 37.611713 O 0.0 **** 0.0
710 H 40.287294 22.700825 38.109682 H 0.0 **** 0.0
711 H 41.475869 22.274373 37.074251 H 0.0 **** 0.0
712 O 18.370273 12.983337 27.031274 O 0.0 **** 0.0
713 H 17.387357 13.134954 26.926623 H 0.0 **** 0.0
714 H 18.524352 12.144865 27.554043 H 0.0 **** 0.0
715 O 13.835615 15.184671 40.269572 O 0.0 **** 0.0
716 H 13.073145 15.083586 40.9087 H 0.0 **** 0.0
717 H 13.493891 15.127882 39.331456 H 0.0 **** 0.0
718 O 0.809863 34.753792 12.852814 O 0.0 **** 0.0
719 H 0.00037 35.190742 13.245063 H 0.0 **** 0.0
720 H 0.774119 34.820009 11.855617 H 0.0 **** 0.0
721 O 33.584768 37.589382 38.401491 O 0.0 **** 0.0
722 H 33.087413 36.83614 37.970994 H 0.0 **** 0.0
723 H 32.943882 38.319557 38.638498 H 0.0 **** 0.0
724 O 25.086475 21.096072 36.533531 O 0.0 **** 0.0
725 H 24.226233 21.251454 36.047831 H 0.0 **** 0.0
726 H 25.347881 21.928083 37.022905 H 0.0 **** 0.0
727 O 23.365575 36.703296 23.30781 O 0.0 **** 0.0
728 H 22.887371 37.467916 22.875676 H 0.0 **** 0.0
729 H 23.707703 36.987578 24.203463 H 0.0 **** 0.0
730 O 12.878401 9.632781 23.915062 O 0.0 **** 0.0
731 H 13.705124 9.439368 24.44344 H 0.0 **** 0.0
732 H 13.130847 9.877345 22.978834 H 0.0 **** 0.0
733 O 31.851458 30.625594 4.102367 O 0.0 **** 0.0
734 H 32.444902 30.829232 3.323637 H 0.0 **** 0.0
735 H 30.977244 31.097424 3.987523 H 0.0 **** 0.0
736 O 2.929789 40.832005 41.669898 O 0.0 **** 0.0
737 H 2.153646 40.205928 41.745354 H 0.0 **** 0.0
738 H 2.619602 41.768568 41.83329 H 0.0 **** 0.0
739 O 23.155437 1.838375 27.661601 O 0.0 **** 0.0
740 H 23.384736 2.811619 27.678342 H 0.0 **** 0.0
741 H 22.251606 1.71593 27.251527 H 0.0 **** 0.0
742 O 23.907071 32.541629 16.887682 O 0.0 **** 0.0
743 H 24.046323 33.305949 17.517354 H 0.0 **** 0.0
744 H 22.935367 32.307181 16.857863 H 0.0 **** 0.0
745 O 15.403527 4.386048 11.57434 O 0.0 **** 0.0
746 H 16.006013 3.732164 11.116618 H 0.0 **** 0.0
747 H 14.896514 4.908504 10.888745 H 0.0 **** 0.0
748 O 25.357221 26.175417 3.160695 O 0.0 **** 0.0
749 H 25.634992 26.713944 2.365147 H 0.0 **** 0.0
750 H 24.446851 26.464147 3.457216 H 0.0 **** 0.0
751 O 26.62122 36.550345 11.992252 O 0.0 **** 0.0
752 H 26.615909 37.288205 12.667231 H 0.0 **** 0.0
753 H 26.679712 36.939918 11.073081 H 0.0 **** 0.0
754 O 12.012808 23.438479 8.690489 O 0.0 **** 0.0
755 H 11.191699 23.030725 8.291016 H 0.0 **** 0.0
756 H 12.236431 24.28274 8.203376 H 0.0 **** 0.0
757 O 21.425327 42.707723 28.343412 O 0.0 **** 0.0
758 H 20.686692 43.36749 28.481938 H 0.0 **** 0.0
759 H 21.241387 41.884018 28.879826 H 0.0 **** 0.0
760 O 5.695694 47.271658 27.404744 O 0.0 **** 0.0
761 H 5.028072 47.98471 27.190501 H 0.0 **** 0.0
762 H 5.338396 46.383168 27.116671 H 0.0 **** 0.0
763 O 17.163654 23.043479 36.660195 O 0.0 **** 0.0
764 H 17.446649 23.523048 37.490851 H 0.0 **** 0.0
765 H 17.85573 23.170844 35.949652 H 0.0 **** 0.0
766 O 24.382292 0.73589 24.958605 O 0.0 **** 0.0
767 H 23.67809 0.072494 24.705488 H 0.0 **** 0.0
768 H 25.210573 0.251531 25.240402 H 0.0 **** 0.0
769 O 38.442392 29.848134 42.84183 O 0.0 **** 0.0
770 H 39.211201 29.409037 43.306792 H 0.0 **** 0.0
771 H 37.782688 29.152031 42.55847 H 0.0 **** 0.0
772 O 28.864569 3.201153 34.085694 O 0.0 **** 0.0
773 H 29.108603 3.332817 35.046514 H 0.0 **** 0.0
774 H 29.615727 2.74247 33.610894 H 0.0 **** 0.0
775 O 15.896746 27.933006 22.4005 O 0.0 **** 0.0
776 H 15.354087 28.772679 22.377425 H 0.0 **** 0.0
777 H 15.324975 27.175209 22.71496 H 0.0 **** 0.0
778 O 8.551761 36.286409 46.888169 O 0.0 **** 0.0
779 H 7.611723 36.331545 46.550005 H 0.0 **** 0.0
780 H 9.184837 36.287563 46.11404 H 0.0 **** 0.0
781 O 6.40878 18.559055 27.791522 O 0.0 **** 0.0
782 H 7.149818 18.145342 27.262592 H 0.0 **** 0.0
783 H 6.593912 19.533524 27.918801 H 0.0 **** 0.0
784 O 6.540908 0.554248 0.594042 O 0.0 **** 0.0
785 H 7.141366 -0.000305 1.170223 H 0.0 **** 0.0
786 H 5.765437 0.000434 0.29073 H 0.0 **** 0.0
787 O 33.921234 39.927183 3.727015 O 0.0 **** 0.0
788 H 33.666123 40.176915 2.792876 H 0.0 **** 0.0
789 H 34.86208 39.588383 3.736277 H 0.0 **** 0.0
790 O 28.109642 36.383583 23.889958 O 0.0 **** 0.0
791 H 27.574581 37.121293 23.478185 H 0.0 **** 0.0
792 H 29.076349 36.508099 23.666271 H 0.0 **** 0.0
793 O 10.765753 18.579437 4.235343 O 0.0 **** 0.0
794 H 11.745496 18.39519 4.156476 H 0.0 **** 0.0
795 H 10.595804 19.552193 4.07746 H 0.0 **** 0.0
796 O 28.649847 28.326688 0.465377 O 0.0 **** 0.0
797 H 28.559599 27.344831 0.298414 H 0.0 **** 0.0
798 H 29.331894 28.481905 1.180068 H 0.0 **** 0.0
799 O 23.998606 13.985627 8.583777 O 0.0 **** 0.0
800 H 24.58777 14.793235 8.556959 H 0.0 **** 0.0
801 H 23.040443 14.271958 8.584125 H 0.0 **** 0.0
802 O 32.032291 38.146946 27.481894 O 0.0 **** 0.0
803 H 31.641715 39.039365 27.707948 H 0.0 **** 0.0
804 H 31.315564 37.450512 27.518577 H 0.0 **** 0.0
805 O 22.975144 34.659976 15.188358 O 0.0 **** 0.0
806 H 22.05898 35.029443 15.343927 H 0.0 **** 0.0
807 H 22.925576 33.663463 15.120767 H 0.0 **** 0.0
808 O 9.549656 32.852601 11.393841 O 0.0 **** 0.0
809 H 8.612657 32.524258 11.274313 H 0.0 **** 0.0
810 H 10.161068 32.073124 11.530423 H 0.0 **** 0.0
811 O 15.214017 42.248807 6.965942 O 0.0 **** 0.0
812 H 14.941122 41.286867 6.982132 H 0.0 **** 0.0
813 H 16.212035 42.312068 6.96134 H 0.0 **** 0.0
814 O 44.395094 -0.016676 44.806194 O 0.0 **** 0.0
815 H 45.191875 0.47605 45.156084 H 0.0 **** 0.0
816 H 43.773464 0.628076 44.361297 H 0.0 **** 0.0
817 O 31.586772 24.193205 26.586923 O 0.0 **** 0.0
818 H 31.612491 23.194587 26.540392 H 0.0 **** 0.0
819 H 30.646501 24.508702 26.458805 H 0.0 **** 0.0
820 O 19.139105 5.270293 43.794904 O 0.0 **** 0.0
821 H 19.886948 4.975237 43.200147 H 0.0 **** 0.0
822 H 19.295954 6.214697 44.083976 H 0.0 **** 0.0
823 O 29.188968 42.577074 30.28023 O 0.0 **** 0.0
824 H 29.929428 41.907649 30.219797 H 0.0 **** 0.0
825 H 28.437439 42.297612 29.682595 H 0.0 **** 0.0
826 O 7.500335 26.939929 37.301756 O 0.0 **** 0.0
827 H 6.722251 27.14569 36.708199 H 0.0 **** 0.0
828 H 7.350974 26.060734 37.754271 H 0.0 **** 0.0
829 O 43.958713 13.809609 1.627034 O 0.0 **** 0.0
830 H 44.275145 14.727232 1.867665 H 0.0 **** 0.0
831 H 44.453233 13.132846 2.172474 H 0.0 **** 0.0
832 O 37.559885 12.127488 14.9874 O 0.0 **** 0.0
833 H 38.21689 11.641376 14.411116 H 0.0 **** 0.0
834 H 36.632192 11.946488 14.660771 H 0.0 **** 0.0
835 O 2.158785 23.098944 8.186719 O 0.0 **** 0.0
836 H 1.548868 22.816358 7.446307 H 0.0 **** 0.0
837 H 1.799962 22.766972 9.059131 H 0.0 **** 0.0
838 O 38.630677 2.848636 4.927605 O 0.0 **** 0.0
839 H 39.200622 2.484148 4.191144 H 0.0 **** 0.0
840 H 37.667844 2.673884 4.721503 H 0.0 **** 0.0
841 O 21.165499 33.37434 33.926303 O 0.0 **** 0.0
842 H 20.531323 34.12979 33.761442 H 0.0 **** 0.0
843 H 22.102279 33.723809 33.945737 H 0.0 **** 0.0
844 O 8.761584 25.176271 27.360635 O 0.0 **** 0.0
845 H 9.202907 25.27918 28.252098 H 0.0 **** 0.0
846 H 9.237795 25.74023 26.685923 H 0.0 **** 0.0
847 O 47.38412 12.812448 3.636741 O 0.0 **** 0.0
848 H 47.344328 12.542886 4.598934 H 0.0 **** 0.0
849 H 48.00046 12.198288 3.143794 H 0.0 **** 0.0
850 O 40.676308 9.333861 26.68379 O 0.0 **** 0.0
851 H 39.716301 9.607408 26.743979 H 0.0 **** 0.0
852 H 41.052281 9.628287 25.805143 H 0.0 **** 0.0
853 O 37.888286 34.251301 19.174492 O 0.0 **** 0.0
854 H 38.263497 34.242405 18.247561 H 0.0 **** 0.0
855 H 36.943787 33.923279 19.154871 H 0.0 **** 0.0
856 O 29.787933 37.349089 29.510211 O 0.0 **** 0.0
857 H 30.710154 36.968301 29.577822 H 0.0 **** 0.0
858 H 29.137122 36.614231 29.319183 H 0.0 **** 0.0
859 O 15.714239 11.030815 24.004768 O 0.0 **** 0.0
860 H 14.769532 11.33585 24.12537 H 0.0 **** 0.0
861 H 15.802777 10.086769 24.322575 H 0.0 **** 0.0
862 O 19.477388 34.736513 18.581896 O 0.0 **** 0.0
863 H 19.02454 33.869519 18.373776 H 0.0 **** 0.0
864 H 20.459664 34.647505 18.416747 H 0.0 **** 0.0
865 O 20.783004 46.459509 9.815508 O 0.0 **** 0.0
866 H 20.61366 45.674397 9.219702 H 0.0 **** 0.0
867 H 19.968283 46.642025 10.365945 H 0.0 **** 0.0
868 O 31.345125 38.973267 33.663203 O 0.0 **** 0.0
869 H 30.632755 39.480119 33.17772 H 0.0 **** 0.0
870 H 32.152274 39.553687 33.771302 H 0.0 **** 0.0
871 O 29.054646 29.782876 4.21061 O 0.0 **** 0.0
872 H 29.461592 29.656584 3.305895 H 0.0 **** 0.0
873 H 28.451561 30.580465 4.196384 H 0.0 **** 0.0
874 O 31.722546 31.684667 41.789837 O 0.0 **** 0.0
875 H 31.28345 31.811737 40.900393 H 0.0 **** 0.0
876 H 31.572675 32.496313 42.354488 H 0.0 **** 0.0
877 O 7.130671 17.056792 47.05295 O 0.0 **** 0.0
878 H 6.732886 16.681587 46.215662 H 0.0 **** 0.0
879 H 7.899 16.485628 47.341924 H 0.0 **** 0.0
880 O 3.976941 42.968856 9.625214 O 0.0 **** 0.0
881 H 4.920653 42.639286 9.595973 H 0.0 **** 0.0
882 H 3.351515 42.188568 9.632701 H 0.0 **** 0.0
883 O 8.285528 27.660852 0.173237 O 0.0 **** 0.0
884 H 9.263079 27.861088 0.107176 H 0.0 **** 0.0
885 H 7.761881 28.493831 -0.005657 H 0.0 **** 0.0
886 O 7.71116 36.92294 8.484221 O 0.0 **** 0.0
887 H 7.013196 36.326764 8.08738 H 0.0 **** 0.0
888 H 7.514881 37.873095 8.24185 H 0.0 **** 0.0
889 O 13.974752 9.029366 4.886498 O 0.0 **** 0.0
890 H 13.198411 9.103252 4.260481 H 0.0 **** 0.0
891 H 13.668914 9.215859 5.820172 H 0.0 **** 0.0
892 O 30.360706 35.088286 43.528008 O 0.0 **** 0.0
893 H 29.401138 35.360941 43.598378 H 0.0 **** 0.0
894 H 30.416997 34.09915 43.391974 H 0.0 **** 0.0
895 O 44.535698 17.61231 0.77871 O 0.0 **** 0.0
896 H 44.103765 16.733652 0.982319 H 0.0 **** 0.0
897 H 45.153927 17.507196 -0.000269 H 0.0 **** 0.0
898 O 3.012541 32.111296 18.004435 O 0.0 **** 0.0
899 H 2.480148 32.957377 17.976729 H 0.0 **** 0.0
900 H 2.688726 31.49025 17.290636 H 0.0 **** 0.0
901 O 17.819064 34.434051 12.089093 O 0.0 **** 0.0
902 H 18.445385 34.827584 12.762084 H 0.0 **** 0.0
903 H 17.874813 33.436237 12.12546 H 0.0 **** 0.0
904 O 30.223905 31.749206 47.142649 O 0.0 **** 0.0
905 H 29.298737 31.401712 47.295539 H 0.0 **** 0.0
906 H 30.585347 32.122028 47.997299 H 0.0 **** 0.0
907 O 37.502218 1.241603 27.444267 O 0.0 **** 0.0
908 H 38.331077 0.962681 26.959232 H 0.0 **** 0.0
909 H 37.712898 1.379595 28.412066 H 0.0 **** 0.0
910 O 40.191343 10.764222 39.452097 O 0.0 **** 0.0
911 H 40.930863 11.049037 38.842135 H 0.0 **** 0.0
912 H 40.25457 11.271099 40.31183 H 0.0 **** 0.0
913 O 26.691506 28.449354 20.391544 O 0.0 **** 0.0
914 H 25.945205 27.784471 20.359474 H 0.0 **** 0.0
915 H 26.316291 29.364729 20.53771 H 0.0 **** 0.0
916 O 9.589925 38.71771 21.487056 O 0.0 **** 0.0
917 H 8.946001 38.252986 20.879226 H 0.0 **** 0.0
918 H 9.51416 38.335334 22.407985 H 0.0 **** 0.0
919 O 13.200857 8.032782 16.386481 O 0.0 **** 0.0
920 H 13.651969 8.339436 15.548314 H 0.0 **** 0.0
921 H 12.387924 7.499835 16.151596 H 0.0 **** 0.0
922 O 17.807896 19.176408 8.356155 O 0.0 **** 0.0
923 H 17.652148 19.941863 7.731749 H 0.0 **** 0.0
924 H 18.788427 18.989142 8.415768 H 0.0 **** 0.0
925 O 38.920916 40.086746 20.368198 O 0.0 **** 0.0
926 H 39.862507 40.095026 20.031449 H 0.0 **** 0.0
927 H 38.525034 41.000178 20.273426 H 0.0 **** 0.0
928 O 29.389136 7.41007 27.454111 O 0.0 **** 0.0
929 H 30.20392 7.932539 27.202685 H 0.0 **** 0.0
930 H 28.583436 7.999298 27.393112 H 0.0 **** 0.0
931 O 28.921006 38.184303 41.893141 O 0.0 **** 0.0
932 H 28.730778 37.233878 42.139246 H 0.0 **** 0.0
933 H 29.764621 38.227517 41.357877 H 0.0 **** 0.0
934 O 46.357298 36.774578 11.640489 O 0.0 **** 0.0
935 H 45.407417 36.979619 11.404381 H 0.0 **** 0.0
936 H 46.525795 35.795735 11.52413 H 0.0 **** 0.0
937 O 6.403814 38.406616 15.700701 O 0.0 **** 0.0
938 H 6.295399 38.306446 16.689779 H 0.0 **** 0.0
939 H 5.610595 38.012037 15.236831 H 0.0 **** 0.0
940 O 43.10406 10.315211 40.523313 O 0.0 **** 0.0
941 H 42.619056 9.44071 40.532366 H 0.0 **** 0.0
942 H 42.441546 11.063369 40.485944 H 0.0 **** 0.0
943 O 30.663849 25.442634 6.822607 O 0.0 **** 0.0
944 H 31.54975 25.906315 6.807039 H 0.0 **** 0.0
945 H 29.935907 26.118528 6.938063 H 0.0 **** 0.0
946 O 42.29369 38.596347 41.681493 O 0.0 **** 0.0
947 H 42.765719 37.75359 41.940362 H 0.0 **** 0.0
948 H 42.639752 38.914519 40.798843 H 0.0 **** 0.0
949 O 11.39445 25.171748 0.197561 O 0.0 **** 0.0
950 H 11.624073 26.125036 0.001151 H 0.0 **** 0.0
951 H 10.457003 25.118855 0.541738 H 0.0 **** 0.0
952 O 24.641849 26.065338 41.662876 O 0.0 **** 0.0
953 H 24.224436 26.945723 41.888158 H 0.0 **** 0.0
954 H 25.554953 26.016111 42.067697 H 0.0 **** 0.0
955 O 28.075124 8.946359 25.478685 O 0.0 **** 0.0
956 H 28.592574 8.923966 24.623228 H 0.0 **** 0.0
957 H 28.025369 9.887344 25.813551 H 0.0 **** 0.0
958 O 43.278138 5.021621 45.454683 O 0.0 **** 0.0
959 H 44.142038 5.359764 45.081321 H 0.0 **** 0.0
960 H 43.338314 4.032751 45.59098 H 0.0 **** 0.0
961 O 30.717649 19.60826 34.146771 O 0.0 **** 0.0
962 H 31.154589 19.542382 33.249662 H 0.0 **** 0.0
963 H 31.402158 19.852339 34.833747 H 0.0 **** 0.0
964 O 40.515016 22.32135 7.364367 O 0.0 **** 0.0
965 H 39.778337 21.942445 7.924544 H 0.0 **** 0.0
966 H 40.254833 23.231959 7.043186 H 0.0 **** 0.0
967 O 29.540246 44.812174 9.959959 O 0.0 **** 0.0
968 H 30.32725 44.251936 9.701461 H 0.0 **** 0.0
969 H 29.856035 45.712643 10.259118 H 0.0 **** 0.0
970 O 36.635324 40.678918 27.779528 O 0.0 **** 0.0
971 H 35.92851 39.971509 27.786563 H 0.0 **** 0.0
972 H 36.208027 41.577941 27.875652 H 0.0 **** 0.0
973 O 14.866417 24.923883 6.068083 O 0.0 **** 0.0
974 H 15.815025 24.718155 5.827497 H 0.0 **** 0.0
975 H 14.307005 24.10353 5.949157 H 0.0 **** 0.0
976 O 42.835403 45.312382 45.153119 O 0.0 **** 0.0
977 H 43.37738 44.481039 45.276369 H 0.0 **** 0.0
978 H 43.388959 46.109792 45.393485 H 0.0 **** 0.0
979 O 25.212153 42.787546 39.502976 O 0.0 **** 0.0
980 H 25.881044 42.91519 38.770613 H 0.0 **** 0.0
981 H 25.092204 43.647885 39.998449 H 0.0 **** 0.0
982 O 32.663937 9.470416 1.550125 O 0.0 **** 0.0
983 H 32.831865 9.247864 0.589743 H 0.0 **** 0.0
984 H 33.102655 8.785976 2.132475 H 0.0 **** 0.0
985 O 44.015579 29.968589 41.649538 O 0.0 **** 0.0
986 H 43.133391 29.865377 41.190021 H 0.0 **** 0.0
987 H 44.302852 30.925585 41.608363 H 0.0 **** 0.0
988 O 7.94201 34.517281 44.263377 O 0.0 **** 0.0
989 H 8.763527 34.332147 44.802728 H 0.0 **** 0.0
990 H 7.522281 35.369017 44.577121 H 0.0 **** 0.0
991 O 44.790906 26.647088 39.677241 O 0.0 **** 0.0
992 H 44.752257 27.595099 39.361257 H 0.0 **** 0.0
993 H 43.867438 26.329864 39.893202 H 0.0 **** 0.0
994 O 24.687164 3.441809 23.927293 O 0.0 **** 0.0
995 H 25.254648 3.304849 23.11534 H 0.0 **** 0.0
996 H 24.512353 4.418666 24.050808 H 0.0 **** 0.0
997 O 24.952435 22.472037 28.126299 O 0.0 **** 0.0
998 H 24.065893 22.884279 27.916153 H 0.0 **** 0.0
999 H 24.910913 22.031421 29.023068 H 0.0 **** 0.0
1000 O 12.666506 5.870008 31.32262 O 0.0 **** 0.0
1001 H 12.757529 5.73684 30.335683 H 0.0 **** 0.0
1002 H 13.179181 6.683318 31.597855 H 0.0 **** 0.0
1003 O 38.29764 13.323798 39.227719 O 0.0 **** 0.0
1004 H 39.214862 13.389864 39.62066 H 0.0 **** 0.0
1005 H 38.352005 13.429862 38.234815 H 0.0 **** 0.0
1006 O 47.836197 20.006374 22.978482 O 0.0 **** 0.0
1007 H 46.959986 19.712368 22.596543 H 0.0 **** 0.0
1008 H 47.998917 20.963985 22.740646 H 0.0 **** 0.0
1009 O 37.650088 43.362848 31.68515 O 0.0 **** 0.0
1010 H 36.881304 42.947977 32.17189 H 0.0 **** 0.0
1011 H 37.883206 42.802062 30.890645 H 0.0 **** 0.0
1012 O 35.49796 23.926285 42.322777 O 0.0 **** 0.0
1013 H 35.271163 24.896669 42.239228 H 0.0 **** 0.0
1014 H 34.726554 23.437643 42.730486 H 0.0 **** 0.0
1015 O 36.810828 9.438146 6.74637 O 0.0 **** 0.0
1016 H 36.676122 9.96826 5.909174 H 0.0 **** 0.0
1017 H 36.06222 9.624273 7.38277 H 0.0 **** 0.0
1018 O 22.04676 29.947826 37.476512 O 0.0 **** 0.0
1019 H 21.21104 29.873473 36.932356 H 0.0 **** 0.0
1020 H 21.816837 29.900331 38.448594 H 0.0 **** 0.0
1021 O 47.78015 17.790254 1.592679 O 0.0 **** 0.0
1022 H 47.794697 16.842464 1.911342 H 0.0 **** 0.0
1023 H 48.000531 18.400998 2.353261 H 0.0 **** 0.0
1024 O 37.331039 13.817527 41.141015 O 0.0 **** 0.0
1025 H 36.840452 12.965302 40.959081 H 0.0 **** 0.0
1026 H 37.993154 13.670564 41.875909 H 0.0 **** 0.0
1027 O 8.111425 6.763573 37.190413 O 0.0 **** 0.0
1028 H 8.951031 7.299464 37.101273 H 0.0 **** 0.0
1029 H 7.319511 7.362784 37.072588 H 0.0 **** 0.0
1030 O 26.614383 5.284334 29.841245 O 0.0 **** 0.0
1031 H 25.956867 5.531644 30.552986 H 0.0 **** 0.0
1032 H 27.150759 4.495895 30.142455 H 0.0 **** 0.0
1033 O 1.131354 3.501548 6.570956 O 0.0 **** 0.0
1034 H 0.505374 4.206287 6.904955 H 0.0 **** 0.0
1035 H 1.973508 3.931166 6.24497 H 0.0 **** 0.0
1036 O 31.78345 17.147336 33.575909 O 0.0 **** 0.0
1037 H 32.178922 16.228871 33.585227 H 0.0 **** 0.0
1038 H 31.80347 17.528204 34.500355 H 0.0 **** 0.0
1039 O 19.808987 38.588806 30.231996 O 0.0 **** 0.0
1040 H 19.246492 37.775523 30.381106 H 0.0 **** 0.0
1041 H 19.334269 39.213197 29.61164 H 0.0 **** 0.0
1042 O 10.018583 30.214907 23.0882 O 0.0 **** 0.0
1043 H 9.959218 29.270498 23.411665 H 0.0 **** 0.0
1044 H 9.421073 30.794997 23.641861 H 0.0 **** 0.0
1045 O 25.854383 7.329011 43.713881 O 0.0 **** 0.0
1046 H 25.5547 6.419504 44.002065 H 0.0 **** 0.0
1047 H 26.673622 7.587697 44.225733 H 0.0 **** 0.0
1048 O 2.298 30.878641 33.773851 O 0.0 **** 0.0
1049 H 1.830399 31.360331 33.032645 H 0.0 **** 0.0
1050 H 3.257198 30.739209 33.527761 H 0.0 **** 0.0
1051 O 3.066703 30.460179 22.026282 O 0.0 **** 0.0
1052 H 2.386982 31.186471 22.128956 H 0.0 **** 0.0
1053 H 3.978412 30.864729 21.954249 H 0.0 **** 0.0
1054 O 31.435767 27.254295 45.493237 O 0.0 **** 0.0
1055 H 32.102239 27.546855 46.179012 H 0.0 **** 0.0
1056 H 31.439977 27.898477 44.728336 H 0.0 **** 0.0
1057 O 44.338947 3.893462 42.933307 O 0.0 **** 0.0
1058 H 43.583767 3.241442 43.001392 H 0.0 **** 0.0
1059 H 44.424804 4.206399 41.987388 H 0.0 **** 0.0
1060 O 42.784793 46.142959 21.191963 O 0.0 **** 0.0
1061 H 42.709584 45.176002 20.948241 H 0.0 **** 0.0
1062 H 41.870152 46.541357 21.261048 H 0.0 **** 0.0
1063 O 30.689567 47.224001 1.357517 O 0.0 **** 0.0
1064 H 31.320017 48.000271 1.358067 H 0.0 **** 0.0
1065 H 29.758232 47.550937 1.518109 H 0.0 **** 0.0
1066 O 32.736401 20.882732 40.451936 O 0.0 **** 0.0
1067 H 33.684694 20.659159 40.677364 H 0.0 **** 0.0
1068 H 32.531782 21.812923 40.756794 H 0.0 **** 0.0
1069 O 45.194121 43.549117 44.460114 O 0.0 **** 0.0
1070 H 45.664334 44.366814 44.792279 H 0.0 **** 0.0
1071 H 45.714566 43.148619 43.705925 H 0.0 **** 0.0
1072 O 1.975788 36.826663 24.345828 O 0.0 **** 0.0
1073 H 1.122595 36.372477 24.089235 H 0.0 **** 0.0
1074 H 1.768328 37.684253 24.816533 H 0.0 **** 0.0
1075 O 44.62331 29.250399 34.748298 O 0.0 **** 0.0
1076 H 44.127296 29.194848 35.61487 H 0.0 **** 0.0
1077 H 44.068529 29.742959 34.077727 H 0.0 **** 0.0
1078 O 46.118048 11.568459 19.936686 O 0.0 **** 0.0
1079 H 46.387713 11.93143 19.044724 H 0.0 **** 0.0
1080 H 45.550135 10.755483 19.807811 H 0.0 **** 0.0
1081 O 14.587708 30.582861 17.764752 O 0.0 **** 0.0
1082 H 15.398011 29.997187 17.74337 H 0.0 **** 0.0
1083 H 13.944192 30.287369 17.058611 H 0.0 **** 0.0
1084 O 6.953924 4.803474 30.55998 O 0.0 **** 0.0
1085 H 7.544153 5.270895 31.218166 H 0.0 **** 0.0
1086 H 7.333844 3.901816 30.353249 H 0.0 **** 0.0
1087 O 7.783423 14.433463 13.265803 O 0.0 **** 0.0
1088 H 6.854638 14.647659 12.963244 H 0.0 **** 0.0
1089 H 8.292359 15.282763 13.406289 H 0.0 **** 0.0
1090 O 38.534801 7.669473 38.137444 O 0.0 **** 0.0
1091 H 38.483704 6.670756 38.141495 H 0.0 **** 0.0
1092 H 37.691784 8.04475 37.75202 H 0.0 **** 0.0
1093 O 28.028505 17.225873 22.864765 O 0.0 **** 0.0
1094 H 28.942589 17.601903 23.016802 H 0.0 **** 0.0
1095 H 27.426528 17.944058 22.515626 H 0.0 **** 0.0
1096 O 44.411418 17.27391 27.244284 O 0.0 **** 0.0
1097 H 44.062556 16.538775 26.662961 H 0.0 **** 0.0
1098 H 45.187114 17.715646 26.793476 H 0.0 **** 0.0
1099 O 19.914025 38.567597 25.979569 O 0.0 **** 0.0
1100 H 18.995741 38.360999 25.641731 H 0.0 **** 0.0
1101 H 20.587086 38.339916 25.275854 H 0.0 **** 0.0
1102 O 30.703413 24.708714 4.507932 O 0.0 **** 0.0
1103 H 29.814014 24.948925 4.118918 H 0.0 **** 0.0
1104 H 30.966045 23.794368 4.199617 H 0.0 **** 0.0
1105 O 7.24171 45.568403 25.792909 O 0.0 **** 0.0
1106 H 6.761491 44.852121 25.286557 H 0.0 **** 0.0
1107 H 8.201515 45.588207 25.512826 H 0.0 **** 0.0
1108 O 29.324433 9.464576 29.196954 O 0.0 **** 0.0
1109 H 28.349219 9.243411 29.186624 H 0.0 **** 0.0
1110 H 29.856321 8.622144 29.283366 H 0.0 **** 0.0
1111 O 0.734044 42.101976 43.215407 O 0.0 **** 0.0
1112 H 0.426153 42.360799 42.299832 H 0.0 **** 0.0
1113 H 0.564458 41.127227 43.360899 H 0.0 **** 0.0
1114 O 35.209828 35.634882 44.084675 O 0.0 **** 0.0
1115 H 35.590553 36.536667 44.289356 H 0.0 **** 0.0
1116 H 34.432181 35.456755 44.687666 H 0.0 **** 0.0
1117 O 14.228093 44.725125 39.335492 O 0.0 **** 0.0
1118 H 13.759371 45.100541 38.535852 H 0.0 **** 0.0
1119 H 14.89816 45.387569 39.670516 H 0.0 **** 0.0
1120 O 36.587729 25.446664 4.299719 O 0.0 **** 0.0
1121 H 35.69791 25.25049 3.88765 H 0.0 **** 0.0
1122 H 37.039431 24.587963 4.541918 H 0.0 **** 0.0
1123 O 46.21864 25.509412 44.230477 O 0.0 **** 0.0
1124 H 45.23444 25.560738 44.060834 H 0.0 **** 0.0
1125 H 46.434338 24.643412 44.681677 H 0.0 **** 0.0
1126 O 43.53001 43.242548 30.725492 O 0.0 **** 0.0
1127 H 42.971322 42.620366 30.177022 H 0.0 **** 0.0
1128 H 43.044364 44.108455 30.845561 H 0.0 **** 0.0
1129 O 17.331985 20.588802 21.765716 O 0.0 **** 0.0
1130 H 16.918256 19.68098 21.696802 H 0.0 **** 0.0
1131 H 17.784099 20.682541 22.652773 H 0.0 **** 0.0
1132 O 13.502772 36.15742 22.121776 O 0.0 **** 0.0
1133 H 13.950708 35.343578 22.492017 H 0.0 **** 0.0
1134 H 14.015761 36.489082 21.330001 H 0.0 **** 0.0
1135 O 20.725383 22.72989 19.739333 O 0.0 **** 0.0
1136 H 21.387103 21.981448 19.694333 H 0.0 **** 0.0
1137 H 20.895883 23.276644 20.559122 H 0.0 **** 0.0
1138 O 33.157063 24.540186 32.816796 O 0.0 **** 0.0
1139 H 33.691317 25.159273 33.392441 H 0.0 **** 0.0
1140 H 32.957897 23.70183 33.324294 H 0.0 **** 0.0
1141 O 11.847641 41.516651 30.296467 O 0.0 **** 0.0
1142 H 12.586594 41.123292 30.843533 H 0.0 **** 0.0
1143 H 11.844038 42.510573 30.406781 H 0.0 **** 0.0
1144 O 47.425487 24.0645 18.685972 O 0.0 **** 0.0
1145 H 47.030182 23.937409 17.776222 H 0.0 **** 0.0
1146 H 47.887789 24.950275 18.727695 H 0.0 **** 0.0
1147 O 39.944311 -0.038117 23.549627 O 0.0 **** 0.0
1148 H 39.016201 0.248551 23.787318 H 0.0 **** 0.0
1149 H 40.530349 0.02691 24.357336 H 0.0 **** 0.0
1150 O 30.799793 18.740612 24.265478 O 0.0 **** 0.0
1151 H 30.518894 17.956175 24.818486 H 0.0 **** 0.0
1152 H 31.773929 18.916666 24.407349 H 0.0 **** 0.0
1153 O 8.729871 21.056529 16.256615 O 0.0 **** 0.0
1154 H 8.187597 20.427167 15.699923 H 0.0 **** 0.0
1155 H 9.691948 20.785529 16.224512 H 0.0 **** 0.0
1156 O 30.090262 44.368276 5.671368 O 0.0 **** 0.0
1157 H 29.247656 43.920527 5.372038 H 0.0 **** 0.0
1158 H 30.130472 44.368952 6.67059 H 0.0 **** 0.0
1159 O 26.502169 1.292531 47.632036 O 0.0 **** 0.0
1160 H 25.729757 1.905627 47.46604 H 0.0 **** 0.0
1161 H 26.753401 0.834556 46.779273 H 0.0 **** 0.0
1162 O 36.156268 45.311495 36.912587 O 0.0 **** 0.0
1163 H 36.350216 44.496441 37.458603 H 0.0 **** 0.0
1164 H 35.400587 45.120805 36.285972 H 0.0 **** 0.0
1165 O 17.053359 37.454723 33.310279 O 0.0 **** 0.0
1166 H 16.119889 37.730067 33.54024 H 0.0 **** 0.0
1167 H 17.407147 36.848677 34.022744 H 0.0 **** 0.0
1168 O 7.964167 28.388016 22.145671 O 0.0 **** 0.0
1169 H 8.647724 27.724212 22.449276 H 0.0 **** 0.0
1170 H 8.422893 29.2213 21.83701 H 0.0 **** 0.0
1171 O 40.784919 33.307813 38.529717 O 0.0 **** 0.0
1172 H 40.769559 32.521158 39.14697 H 0.0 **** 0.0
1173 H 41.666885 33.773175 38.604799 H 0.0 **** 0.0
1174 O 40.166095 7.441371 4.737732 O 0.0 **** 0.0
1175 H 39.786986 8.360162 4.627446 H 0.0 **** 0.0
1176 H 41.163971 7.484428 4.688215 H 0.0 **** 0.0
1177 O 40.68095 17.152568 31.81304 O 0.0 **** 0.0
1178 H 39.782564 17.136906 32.252038 H 0.0 **** 0.0
1179 H 41.364995 16.780385 32.440435 H 0.0 **** 0.0
1180 O 6.049623 41.266861 15.728845 O 0.0 **** 0.0
1181 H 5.752489 40.445575 16.215941 H 0.0 **** 0.0
1182 H 5.258266 41.707725 15.305222 H 0.0 **** 0.0
1183 O 9.839177 32.416987 8.006932 O 0.0 **** 0.0
1184 H 9.013979 32.342915 7.44691 H 0.0 **** 0.0
1185 H 10.179248 33.356932 7.976632 H 0.0 **** 0.0
1186 O 18.017693 45.347085 42.942981 O 0.0 **** 0.0
1187 H 17.811239 44.498738 43.430575 H 0.0 **** 0.0
1188 H 18.708744 45.862856 43.44943 H 0.0 **** 0.0
1189 O 5.851795 26.173794 5.885065 O 0.0 **** 0.0
1190 H 6.208462 25.257082 5.704814 H 0.0 **** 0.0
1191 H 6.613525 26.8047 6.032672 H 0.0 **** 0.0
1192 O 12.17589 16.420089 31.926475 O 0.0 **** 0.0
1193 H 12.731911 15.937017 32.602895 H 0.0 **** 0.0
1194 H 11.408441 16.868441 32.384803 H 0.0 **** 0.0
1195 O 44.818115 9.133208 10.000125 O 0.0 **** 0.0
1196 H 44.403308 8.64486 10.767924 H 0.0 **** 0.0
1197 H 44.099599 9.54715 9.441152 H 0.0 **** 0.0
1198 O 17.437083 35.037801 1.601713 O 0.0 **** 0.0
1199 H 16.850493 34.307704 1.251096 H 0.0 **** 0.0
1200 H 17.106785 35.920388 1.267038 H 0.0 **** 0.0
1201 O 47.365674 26.751279 16.877741 O 0.0 **** 0.0
1202 H 48.000055 25.982693 16.794681 H 0.0 **** 0.0
1203 H 47.130468 26.886756 17.840231 H 0.0 **** 0.0
1204 O 10.922831 10.948578 46.918973 O 0.0 **** 0.0
1205 H 11.611495 10.948003 47.644097 H 0.0 **** 0.0
1206 H 10.053037 11.278808 47.285675 H 0.0 **** 0.0
1207 O 16.844035 26.798066 31.32723 O 0.0 **** 0.0
1208 H 17.712824 26.564806 30.890356 H 0.0 **** 0.0
1209 H 16.201473 27.128488 30.635856 H 0.0 **** 0.0
1210 O 39.798048 30.538583 27.832319 O 0.0 **** 0.0
1211 H 39.700514 31.512129 28.039102 H 0.0 **** 0.0
1212 H 40.764503 30.322656 27.693021 H 0.0 **** 0.0
1213 O 29.306218 40.462052 18.459964 O 0.0 **** 0.0
1214 H 29.276058 41.405217 18.791014 H 0.0 **** 0.0
1215 H 28.375194 40.13771 18.292457 H 0.0 **** 0.0
1216 O 5.92112 15.208282 43.642624 O 0.0 **** 0.0
1217 H 6.38269 16.042251 43.340118 H 0.0 **** 0.0
1218 H 4.931548 15.352055 43.630811 H 0.0 **** 0.0
1219 O 24.893531 23.167055 16.95788 O 0.0 **** 0.0
1220 H 24.197933 23.864868 17.128945 H 0.0 **** 0.0
1221 H 24.60785 22.592751 16.190662 H 0.0 **** 0.0
1222 O 13.08049 38.314972 22.196679 O 0.0 **** 0.0
1223 H 13.271933 39.281331 22.024744 H 0.0 **** 0.0
1224 H 12.153667 38.21827 22.5596 H 0.0 **** 0.0
1225 O 48.001082 40.123114 38.594424 O 0.0 **** 0.0
1226 H 47.254607 39.535012 38.905829 H 0.0 **** 0.0
1227 H 47.874125 41.044936 38.96074 H 0.0 **** 0.0
1228 O 6.92922 17.040404 16.46794 O 0.0 **** 0.0
1229 H 6.086524 17.571126 16.558826 H 0.0 **** 0.0
1230 H 7.683991 17.651667 16.229737 H 0.0 **** 0.0
1231 O 25.742087 39.427345 19.094375 O 0.0 **** 0.0
1232 H 25.074617 39.32797 19.832393 H 0.0 **** 0.0
1233 H 26.665745 39.423688 19.477657 H 0.0 **** 0.0
1234 O 18.908559 42.936552 26.441986 O 0.0 **** 0.0
1235 H 18.396056 43.759003 26.19505 H 0.0 **** 0.0
1236 H 18.4153 42.127768 26.12163 H 0.0 **** 0.0
1237 O 14.115016 14.17164 5.034176 O 0.0 **** 0.0
1238 H 14.140473 13.190795 4.840894 H 0.0 **** 0.0
1239 H 15.049038 14.523992 5.09345 H 0.0 **** 0.0
1240 O 25.289587 13.145847 6.136478 O 0.0 **** 0.0
1241 H 24.386503 13.561692 6.028891 H 0.0 **** 0.0
1242 H 25.988027 13.861558 6.137926 H 0.0 **** 0.0
1243 O 8.357519 20.863991 6.781231 O 0.0 **** 0.0
1244 H 8.891349 20.018519 6.797492 H 0.0 **** 0.0
1245 H 7.90815 20.957367 5.892743 H 0.0 **** 0.0
1246 O 14.712858 32.508662 39.334383 O 0.0 **** 0.0
1247 H 15.373584 32.042004 39.922375 H 0.0 **** 0.0
1248 H 15.079202 33.39844 39.062078 H 0.0 **** 0.0
1249 O 12.160168 16.509759 24.006016 O 0.0 **** 0.0
1250 H 12.093136 15.546437 23.746052 H 0.0 **** 0.0
1251 H 13.071317 16.692656 24.375364 H 0.0 **** 0.0
1252 O 9.122255 18.451057 41.440148 O 0.0 **** 0.0
1253 H 9.945481 18.20143 40.9302 H 0.0 **** 0.0
1254 H 8.642265 17.621289 41.725029 H 0.0 **** 0.0
1255 O 40.872078 18.82937 29.682907 O 0.0 **** 0.0
1256 H 41.242754 17.911837 29.827114 H 0.0 **** 0.0
1257 H 41.566197 19.405096 29.250702 H 0.0 **** 0.0
1258 O 20.50841 35.364705 7.184315 O 0.0 **** 0.0
1259 H 21.324693 35.876412 7.452458 H 0.0 **** 0.0
1260 H 20.769449 34.437138 6.916844 H 0.0 **** 0.0
1261 O 3.209718 15.5631 11.591263 O 0.0 **** 0.0
1262 H 3.76367 15.940776 12.33326 H 0.0 **** 0.0
1263 H 3.068034 16.263299 10.89147 H 0.0 **** 0.0
1264 O 2.018184 38.217426 40.737735 O 0.0 **** 0.0
1265 H 1.730028 37.260015 40.717908 H 0.0 **** 0.0
1266 H 3.017028 38.265112 40.727776 H 0.0 **** 0.0
1267 O 3.291914 23.494409 42.347588 O 0.0 **** 0.0
1268 H 2.54983 23.184543 42.942027 H 0.0 **** 0.0
1269 H 2.953502 23.583231 41.410758 H 0.0 **** 0.0
1270 O 12.979853 12.713024 44.776614 O 0.0 **** 0.0
1271 H 12.155614 12.198351 44.540383 H 0.0 **** 0.0
1272 H 12.832378 13.683782 44.587028 H 0.0 **** 0.0
1273 O 19.950581 32.804638 20.769343 O 0.0 **** 0.0
1274 H 18.977592 33.035448 20.760245 H 0.0 **** 0.0
1275 H 20.492372 33.645099 20.781632 H 0.0 **** 0.0
1276 O 42.163838 25.745431 35.981818 O 0.0 **** 0.0
1277 H 42.948737 25.772634 35.362741 H 0.0 **** 0.0
1278 H 41.591445 24.956048 35.759772 H 0.0 **** 0.0
1279 O 29.777511 15.600098 18.883499 O 0.0 **** 0.0
1280 H 28.818866 15.705096 18.618851 H 0.0 **** 0.0
1281 H 30.17764 14.829334 18.387633 H 0.0 **** 0.0
1282 O 30.517207 43.230584 34.921671 O 0.0 **** 0.0
1283 H 30.915174 44.002674 34.426129 H 0.0 **** 0.0
1284 H 29.554609 43.419706 35.115837 H 0.0 **** 0.0
1285 O 44.287817 9.917124 42.991351 O 0.0 **** 0.0
1286 H 43.686722 10.625863 42.621977 H 0.0 **** 0.0
1287 H 45.128594 10.337683 43.332361 H 0.0 **** 0.0
1288 O 8.827138 13.540192 4.318792 O 0.0 **** 0.0
1289 H 8.396182 12.81073 3.787542 H 0.0 **** 0.0
1290 H 8.198309 13.848793 5.032516 H 0.0 **** 0.0
1291 O 22.243002 25.403941 7.270103 O 0.0 **** 0.0
1292 H 22.543975 26.354129 7.18873 H 0.0 **** 0.0
1293 H 21.625862 25.183966 6.514582 H 0.0 **** 0.0
1294 O 47.861814 35.200269 41.634976 O 0.0 **** 0.0
1295 H 47.396386 35.448764 40.785453 H 0.0 **** 0.0
1296 H 47.999983 36.019712 42.191291 H 0.0 **** 0.0
1297 O 18.908923 26.179674 38.328869 O 0.0 **** 0.0
1298 H 18.65492 25.228518 38.504507 H 0.0 **** 0.0
1299 H 19.900084 26.281216 38.414605 H 0.0 **** 0.0
1300 O 46.921376 37.230219 38.727097 O 0.0 **** 0.0
1301 H 46.384706 36.492069 39.135978 H 0.0 **** 0.0
1302 H 46.449247 37.575735 37.916063 H 0.0 **** 0.0
1303 O 47.958745 0.282862 44.495069 O 0.0 **** 0.0
1304 H 48.005324 1.281782 44.502367 H 0.0 **** 0.0
1305 H 47.074576 -0.006874 44.128516 H 0.0 **** 0.0
1306 O 31.931614 43.434038 24.75512 O 0.0 **** 0.0
1307 H 31.075504 42.961202 24.963844 H 0.0 **** 0.0
1308 H 32.641232 42.761403 24.545196 H 0.0 **** 0.0
1309 O 13.140588 39.817959 26.299567 O 0.0 **** 0.0
1310 H 13.956153 39.371746 26.668093 H 0.0 **** 0.0
1311 H 12.453698 39.905324 27.021102 H 0.0 **** 0.0
1312 O 26.104736 33.705191 28.812089 O 0.0 **** 0.0
1313 H 25.124216 33.541915 28.921567 H 0.0 **** 0.0
1314 H 26.585202 32.829414 28.764873 H 0.0 **** 0.0
1315 O 20.000357 36.431327 37.833122 O 0.0 **** 0.0
1316 H 19.738742 35.533288 38.186882 H 0.0 **** 0.0
1317 H 19.452207 37.138243 38.280185 H 0.0 **** 0.0
1318 O 32.02972 4.036202 2.268787 O 0.0 **** 0.0
1319 H 31.904613 4.74221 2.965898 H 0.0 **** 0.0
1320 H 32.197853 4.468649 1.382906 H 0.0 **** 0.0
1321 O 36.745061 11.952612 37.924179 O 0.0 **** 0.0
1322 H 36.216422 11.94768 37.075309 H 0.0 **** 0.0
1323 H 36.335548 12.598963 38.568068 H 0.0 **** 0.0
1324 O 38.555233 16.095977 5.597253 O 0.0 **** 0.0
1325 H 38.834217 15.211564 5.971478 H 0.0 **** 0.0
1326 H 39.215549 16.388402 4.905492 H 0.0 **** 0.0
1327 O 21.802901 46.01151 30.36499 O 0.0 **** 0.0
1328 H 20.998271 45.436925 30.514944 H 0.0 **** 0.0
1329 H 21.612279 46.940957 30.680987 H 0.0 **** 0.0
1330 O 40.779341 20.987026 34.301202 O 0.0 **** 0.0
1331 H 39.825059 20.700795 34.387692 H 0.0 **** 0.0
1332 H 40.816375 21.91871 33.939737 H 0.0 **** 0.0
1333 O 44.063108 4.791451 25.444404 O 0.0 **** 0.0
1334 H 43.412387 5.072974 24.739159 H 0.0 **** 0.0
1335 H 43.833968 5.240944 26.307835 H 0.0 **** 0.0
1336 O 37.72042 8.974745 14.01907 O 0.0 **** 0.0
1337 H 38.568474 9.497155 13.929878 H 0.0 **** 0.0
1338 H 36.970752 9.480949 13.592669 H 0.0 **** 0.0
1339 O 38.332169 39.742459 13.626571 O 0.0 **** 0.0
1340 H 38.100731 39.256316 14.469283 H 0.0 **** 0.0
1341 H 38.455613 40.714635 13.825814 H 0.0 **** 0.0
1342 O 8.668622 0.30155 6.899235 O 0.0 **** 0.0
1343 H 9.501399 0.846097 6.999309 H 0.0 **** 0.0
1344 H 8.579186 0.00079 5.949705 H 0.0 **** 0.0
1345 O 0.538078 28.775325 42.789029 O 0.0 **** 0.0
1346 H 0.260303 29.713052 42.580288 H 0.0 **** 0.0
1347 H -4e-06 28.431876 43.558817 H 0.0 **** 0.0
1348 O 29.826975 45.888997 36.633192 O 0.0 **** 0.0
1349 H 30.072345 44.997026 37.012987 H 0.0 **** 0.0
1350 H 28.840037 46.026824 36.716975 H 0.0 **** 0.0
1351 O 19.930061 21.842628 34.971634 O 0.0 **** 0.0
1352 H 19.737321 22.818942 34.873017 H 0.0 **** 0.0
1353 H 19.151286 21.391559 35.407649 H 0.0 **** 0.0
1354 O 41.698607 30.362591 37.62334 O 0.0 **** 0.0
1355 H 41.894487 31.085473 36.960666 H 0.0 **** 0.0
1356 H 41.893772 30.69467 38.546214 H 0.0 **** 0.0
1357 O 26.010873 30.858669 0.0597 O 0.0 **** 0.0
1358 H 25.150635 30.348808 0.049899 H 0.0 **** 0.0
1359 H 25.818567 31.838011 -0.003312 H 0.0 **** 0.0
1360 O 15.124667 45.792777 25.893112 O 0.0 **** 0.0
1361 H 14.829995 44.83715 25.896084 H 0.0 **** 0.0
1362 H 16.056993 45.855155 26.249398 H 0.0 **** 0.0
1363 O 20.488694 33.799772 9.531894 O 0.0 **** 0.0
1364 H 20.883289 34.678628 9.263624 H 0.0 **** 0.0
1365 H 20.252297 33.27672 8.712995 H 0.0 **** 0.0
1366 O 13.804234 14.176746 18.81984 O 0.0 **** 0.0
1367 H 13.387491 14.845904 18.204523 H 0.0 **** 0.0
1368 H 13.68932 13.25852 18.440738 H 0.0 **** 0.0
1369 O 1.358245 10.145868 16.765274 O 0.0 **** 0.0
1370 H 2.149298 10.754937 16.707538 H 0.0 **** 0.0
1371 H 1.456734 9.407505 16.098055 H 0.0 **** 0.0
1372 O 37.423905 3.306649 44.71955 O 0.0 **** 0.0
1373 H 37.939108 4.0435 44.281738 H 0.0 **** 0.0
1374 H 37.779126 3.153951 45.641811 H 0.0 **** 0.0
1375 O 2.214105 21.444515 5.452161 O 0.0 **** 0.0
1376 H 2.14383 22.436592 5.347716 H 0.0 **** 0.0
1377 H 2.707932 21.232336 6.295474 H 0.0 **** 0.0
1378 O 12.617785 26.622532 35.754094 O 0.0 **** 0.0
1379 H 11.634579 26.47414 35.860627 H 0.0 **** 0.0
1380 H 13.018743 26.849116 36.641763 H 0.0 **** 0.0
1381 O 17.345165 10.174302 28.547734 O 0.0 **** 0.0
1382 H 16.416348 9.819707 28.439916 H 0.0 **** 0.0
1383 H 17.314412 11.046051 29.036784 H 0.0 **** 0.0
1384 O 30.834859 15.809301 16.313015 O 0.0 **** 0.0
1385 H 29.842935 15.794374 16.439213 H 0.0 **** 0.0
1386 H 31.135269 16.748116 16.144361 H 0.0 **** 0.0
1387 O 0.633003 45.616833 30.046348 O 0.0 **** 0.0
1388 H 1.347494 45.782341 29.366516 H 0.0 **** 0.0
1389 H 0.227439 46.488226 30.322492 H 0.0 **** 0.0
1390 O 45.839107 44.578368 5.39522 O 0.0 **** 0.0
1391 H 46.412297 44.274208 6.156142 H 0.0 **** 0.0
1392 H 45.547466 43.785556 4.860004 H 0.0 **** 0.0
1393 O 29.482861 34.035145 46.158369 O 0.0 **** 0.0
1394 H 29.775488 33.290753 45.558109 H 0.0 **** 0.0
1395 H 29.133944 33.654957 47.014977 H 0.0 **** 0.0
1396 O 0.648526 31.653579 8.793804 O 0.0 **** 0.0
1397 H -0.000461 30.894711 8.848563 H 0.0 **** 0.0
1398 H 1.580559 31.302059 8.882181 H 0.0 **** 0.0
1399 O 4.214497 35.844874 40.468346 O 0.0 **** 0.0
1400 H 4.804958 35.872357 39.661709 H 0.0 **** 0.0
1401 H 3.615786 35.045579 40.416029 H 0.0 **** 0.0
1402 O 26.982177 10.664819 43.216824 O 0.0 **** 0.0
1403 H 27.912783 10.748892 42.8605 H 0.0 **** 0.0
1404 H 26.72804 11.509626 43.687758 H 0.0 **** 0.0
1405 O 28.368888 8.092468 40.954501 O 0.0 **** 0.0
1406 H 29.145274 7.598406 40.563107 H 0.0 **** 0.0
1407 H 27.626991 7.449741 41.14569 H 0.0 **** 0.0
1408 O 37.416465 31.955831 17.001872 O 0.0 **** 0.0
1409 H 37.852056 31.076884 16.807512 H 0.0 **** 0.0
1410 H 37.400714 32.108699 17.990025 H 0.0 **** 0.0
1411 O 2.960765 46.32152 23.883899 O 0.0 **** 0.0
1412 H 3.21135 47.205852 24.277888 H 0.0 **** 0.0
1413 H 3.649689 45.639739 24.130112 H 0.0 **** 0.0
1414 O 42.054667 41.642139 26.210558 O 0.0 **** 0.0
1415 H 41.388917 42.376047 26.07558 H 0.0 **** 0.0
1416 H 42.585207 41.515143 25.372428 H 0.0 **** 0.0
1417 O 1.370969 42.259437 19.460268 O 0.0 **** 0.0
1418 H 0.940226 43.153893 19.580568 H 0.0 **** 0.0
1419 H 2.161478 42.185735 20.068319 H 0.0 **** 0.0
1420 O 43.075816 42.288722 34.994937 O 0.0 **** 0.0
1421 H 42.176934 42.723694 35.048556 H 0.0 **** 0.0
1422 H 43.132741 41.556481 35.673647 H 0.0 **** 0.0
1423 O 36.16696 21.718362 0.307374 O 0.0 **** 0.0
1424 H 36.860997 22.419006 0.473124 H 0.0 **** 0.0
1425 H 35.707619 21.494343 1.166957 H 0.0 **** 0.0
1426 O 13.473502 29.752936 2.822976 O 0.0 **** 0.0
1427 H 13.703609 29.452611 1.897278 H 0.0 **** 0.0
1428 H 14.162146 30.403595 3.143096 H 0.0 **** 0.0
1429 O 8.734607 6.741533 42.981221 O 0.0 **** 0.0
1430 H 9.530726 6.701189 43.585068 H 0.0 **** 0.0
1431 H 8.774652 7.57647 42.432278 H 0.0 **** 0.0
1432 O 47.944356 17.589163 26.310192 O 0.0 **** 0.0
1433 H 47.597653 16.925378 26.972952 H 0.0 **** 0.0
1434 H 47.179271 18.102075 25.920797 H 0.0 **** 0.0
1435 O 35.168171 34.637698 25.90054 O 0.0 **** 0.0
1436 H 35.420147 33.688407 25.712345 H 0.0 **** 0.0
1437 H 35.996629 35.18615 26.01421 H 0.0 **** 0.0
1438 O 9.851599 15.797203 0.574131 O 0.0 **** 0.0
1439 H 8.855453 15.854422 0.507185 H 0.0 **** 0.0
1440 H 10.229724 16.713131 0.708891 H 0.0 **** 0.0
1441 O 15.211917 33.471302 7.435563 O 0.0 **** 0.0
1442 H 14.545762 33.758318 6.747143 H 0.0 **** 0.0
1443 H 15.236113 34.142786 8.176229 H 0.0 **** 0.0
1444 O 5.78893 0.911422 18.932317 O 0.0 **** 0.0
1445 H 4.846754 1.240703 18.869535 H 0.0 **** 0.0
1446 H 6.072955 0.894747 19.891021 H 0.0 **** 0.0
1447 O 10.623536 14.202935 27.18065 O 0.0 **** 0.0
1448 H 11.468224 13.755362 26.886979 H 0.0 **** 0.0
1449 H 9.843463 13.613872 26.969571 H 0.0 **** 0.0
1450 O 32.138685 39.87941 40.1404 O 0.0 **** 0.0
1451 H 31.195871 39.601954 40.32529 H 0.0 **** 0.0
1452 H 32.1468 40.811273 39.777593 H 0.0 **** 0.0
1453 O 44.924697 3.897761 20.050688 O 0.0 **** 0.0
1454 H 45.69867 3.838635 19.420186 H 0.0 **** 0.0
1455 H 44.866639 3.055691 20.586982 H 0.0 **** 0.0
1456 O 43.681663 34.607093 34.883199 O 0.0 **** 0.0
1457 H 42.6906 34.740727 34.883759 H 0.0 **** 0.0
1458 H 44.134157 35.467937 35.116138 H 0.0 **** 0.0
1459 O 44.687969 16.684621 21.054558 O 0.0 **** 0.0
1460 H 43.843144 16.710338 21.589042 H 0.0 **** 0.0
1461 H 44.531854 16.174357 20.208791 H 0.0 **** 0.0
1462 O 11.940526 23.384632 25.071987 O 0.0 **** 0.0
1463 H 12.650997 24.01361 25.387711 H 0.0 **** 0.0
1464 H 12.313554 22.458082 25.022807 H 0.0 **** 0.0
1465 O 33.374941 41.02092 46.164932 O 0.0 **** 0.0
1466 H 32.542945 41.368447 45.732416 H 0.0 **** 0.0
1467 H 33.134387 40.314435 46.830571 H 0.0 **** 0.0
1468 O 17.188964 33.112784 37.712968 O 0.0 **** 0.0
1469 H 17.315378 34.067247 37.983304 H 0.0 **** 0.0
1470 H 17.884557 32.862192 37.039606 H 0.0 **** 0.0
1471 O 4.859456 28.396693 40.707326 O 0.0 **** 0.0
1472 H 5.139334 28.524404 41.658863 H 0.0 **** 0.0
1473 H 4.523562 29.263832 40.339484 H 0.0 **** 0.0
1474 O 29.748434 21.676966 40.538204 O 0.0 **** 0.0
1475 H 30.508761 21.73104 39.89087 H 0.0 **** 0.0
1476 H 29.133829 20.935364 40.269224 H 0.0 **** 0.0
1477 O 32.837421 13.509709 21.878997 O 0.0 **** 0.0
1478 H 32.538162 12.66294 21.439123 H 0.0 **** 0.0
1479 H 33.823039 13.621109 21.75168 H 0.0 **** 0.0
1480 O 3.413403 31.711317 43.106477 O 0.0 **** 0.0
1481 H 3.677108 31.526513 44.053245 H 0.0 **** 0.0
1482 H 3.008139 30.889058 42.706835 H 0.0 **** 0.0
1483 O 2.46507 17.456807 24.212027 O 0.0 **** 0.0
1484 H 1.596447 17.011835 23.993951 H 0.0 **** 0.0
1485 H 3.218969 16.828822 24.018805 H 0.0 **** 0.0
1486 O 19.656953 -0.006947 39.881817 O 0.0 **** 0.0
1487 H 19.89318 0.796432 40.428482 H 0.0 **** 0.0
1488 H 18.679749 0.009665 39.670015 H 0.0 **** 0.0
1489 O 31.652371 39.737622 7.792303 O 0.0 **** 0.0
1490 H 31.214602 40.556874 7.421833 H 0.0 **** 0.0
1491 H 32.554566 39.97561 8.15212 H 0.0 **** 0.0
1492 O 40.119477 24.280211 33.880582 O 0.0 **** 0.0
1493 H 39.362094 23.627406 33.897319 H 0.0 **** 0.0
1494 H 39.786344 25.169189 33.566249 H 0.0 **** 0.0
1495 O 41.051182 34.822852 21.548053 O 0.0 **** 0.0
1496 H 41.569289 33.975177 21.433715 H 0.0 **** 0.0
1497 H 41.659615 35.60559 21.41693 H 0.0 **** 0.0
1498 O 29.060162 17.133428 9.365121 O 0.0 **** 0.0
1499 H 28.658788 16.603572 10.112258 H 0.0 **** 0.0
1500 H 28.3366 17.434872 8.744112 H 0.0 **** 0.0
1501 O 30.152914 12.174671 10.580172 O 0.0 **** 0.0
1502 H 31.001528 12.689381 10.457731 H 0.0 **** 0.0
1503 H 29.678264 12.101071 9.703044 H 0.0 **** 0.0
1504 O 33.333962 23.125211 0.016601 O 0.0 **** 0.0
1505 H 34.153487 22.552158 0.023802 H 0.0 **** 0.0
1506 H 32.521152 22.543913 -0.022078 H 0.0 **** 0.0
1507 O 17.611114 25.959204 40.756872 O 0.0 **** 0.0
1508 H 18.595084 25.799293 40.836216 H 0.0 **** 0.0
1509 H 17.42425 26.480335 39.924065 H 0.0 **** 0.0
1510 O 27.125912 44.22961 23.066192 O 0.0 **** 0.0
1511 H 26.387001 43.56274 23.162931 H 0.0 **** 0.0
1512 H 26.74043 45.123018 22.835348 H 0.0 **** 0.0
1513 O 6.443368 32.218942 17.722541 O 0.0 **** 0.0
1514 H 5.943341 31.453472 17.31746 H 0.0 **** 0.0
1515 H 7.245155 31.872765 18.209738 H 0.0 **** 0.0
1516 O 45.094766 24.673891 20.476166 O 0.0 **** 0.0
1517 H 44.805423 25.592623 20.207327 H 0.0 **** 0.0
1518 H 45.4786 24.200078 19.683553 H 0.0 **** 0.0
1519 O 6.047433 27.070291 1.342204 O 0.0 **** 0.0
1520 H 5.951533 27.305705 0.37502 H 0.0 **** 0.0
1521 H 6.757646 27.64049 1.755161 H 0.0 **** 0.0
1522 O 9.676608 43.362143 22.259026 O 0.0 **** 0.0
1523 H 9.171885 43.155063 21.420912 H 0.0 **** 0.0
1524 H 10.577547 42.929798 22.220948 H 0.0 **** 0.0
1525 O 38.052303 38.255213 0.065305 O 0.0 **** 0.0
1526 H 39.03347 38.072121 0.003246 H 0.0 **** 0.0
1527 H 37.553158 37.389305 0.09879 H 0.0 **** 0.0
1528 O 22.65709 30.826204 25.668852 O 0.0 **** 0.0
1529 H 22.866169 29.873962 25.891528 H 0.0 **** 0.0
1530 H 21.717307 31.033438 25.940745 H 0.0 **** 0.0
1531 O 20.641158 15.804883 8.618515 O 0.0 **** 0.0
1532 H 20.157457 16.67711 8.691427 H 0.0 **** 0.0
1533 H 21.626494 15.972114 8.583715 H 0.0 **** 0.0
1534 O 40.553687 25.774364 46.527758 O 0.0 **** 0.0
1535 H 40.935254 26.615459 46.911199 H 0.0 **** 0.0
1536 H 39.8243 25.437535 47.123245 H 0.0 **** 0.0
1537 O 12.583116 18.706268 37.06754 O 0.0 **** 0.0
1538 H 11.916359 18.467826 37.773687 H 0.0 **** 0.0
1539 H 13.493775 18.409672 37.355278 H 0.0 **** 0.0
1540 O 19.571582 31.557555 1.316227 O 0.0 **** 0.0
1541 H 19.502012 32.469378 1.72095 H 0.0 **** 0.0
1542 H 20.530664 31.351461 1.121931 H 0.0 **** 0.0
1543 O 41.025833 37.272372 17.217949 O 0.0 **** 0.0
1544 H 41.00084 38.169498 17.659087 H 0.0 **** 0.0
1545 H 40.152384 37.100609 16.762266 H 0.0 **** 0.0
1546 O 8.291554 7.209082 15.635893 O 0.0 **** 0.0
1547 H 8.776212 6.457962 15.187576 H 0.0 **** 0.0
1548 H 7.428719 6.87146 16.01218 H 0.0 **** 0.0
1549 O 32.875275 14.934927 31.902789 O 0.0 **** 0.0
1550 H 32.653054 13.961317 31.955379 H 0.0 **** 0.0
1551 H 32.940475 15.210556 30.943706 H 0.0 **** 0.0
1552 O 9.382326 17.546561 45.280106 O 0.0 **** 0.0
1553 H 9.57401 16.609897 44.986881 H 0.0 **** 0.0
1554 H 8.398756 17.718498 45.224517 H 0.0 **** 0.0
1555 O 45.019723 40.041572 24.458754 O 0.0 **** 0.0
1556 H 45.410691 39.12136 24.479138 H 0.0 **** 0.0
1557 H 45.757233 40.716893 24.449605 H 0.0 **** 0.0
1558 O 30.386546 33.9714 37.144396 O 0.0 **** 0.0
1559 H 29.53837 33.481197 36.943493 H 0.0 **** 0.0
1560 H 30.494136 34.728998 36.500554 H 0.0 **** 0.0
1561 O 32.421177 20.57749 16.65542 O 0.0 **** 0.0
1562 H 32.079672 20.856658 17.552918 H 0.0 **** 0.0
1563 H 33.382037 20.311276 16.732496 H 0.0 **** 0.0
1564 O 27.767828 13.421046 43.908706 O 0.0 **** 0.0
1565 H 27.358271 14.251098 43.530103 H 0.0 **** 0.0
1566 H 28.664472 13.271782 43.491796 H 0.0 **** 0.0
1567 O 28.506234 6.512802 0.969824 O 0.0 **** 0.0
1568 H 29.400261 6.084503 0.838148 H 0.0 **** 0.0
1569 H 28.562111 7.48172 0.728704 H 0.0 **** 0.0
1570 O 45.22744 44.50284 36.956762 O 0.0 **** 0.0
1571 H 45.310391 43.511659 36.853124 H 0.0 **** 0.0
1572 H 46.064487 44.943113 36.631839 H 0.0 **** 0.0
1573 O 39.59735 1.691169 20.594697 O 0.0 **** 0.0
1574 H 40.28603 2.387847 20.393642 H 0.0 **** 0.0
1575 H 39.682947 0.939444 19.940751 H 0.0 **** 0.0
1576 O 10.245456 36.48704 20.693452 O 0.0 **** 0.0
1577 H 10.532072 35.563698 20.437807 H 0.0 **** 0.0
1578 H 10.781883 36.797181 21.478386 H 0.0 **** 0.0
1579 O 8.365964 22.166049 27.286897 O 0.0 **** 0.0
1580 H 8.698497 21.28139 27.613799 H 0.0 **** 0.0
1581 H 8.041379 22.072944 26.3456 H 0.0 **** 0.0
1582 O 8.609921 19.608151 48.000288 O 0.0 **** 0.0
1583 H 7.648585 19.860553 47.889882 H 0.0 **** 0.0
1584 H 8.70018 18.613089 47.958235 H 0.0 **** 0.0
1585 O 18.572769 14.342627 13.305679 O 0.0 **** 0.0
1586 H 19.348258 13.723286 13.182804 H 0.0 **** 0.0
1587 H 18.240163 14.641735 12.411269 H 0.0 **** 0.0
1588 O 19.042005 44.534366 4.061859 O 0.0 **** 0.0
1589 H 18.342995 45.115253 4.479014 H 0.0 **** 0.0
1590 H 18.987306 43.614988 4.451494 H 0.0 **** 0.0
1591 O 10.075083 33.609298 42.943802 O 0.0 **** 0.0
1592 H 11.073516 33.552994 42.938733 H 0.0 **** 0.0
1593 H 9.794911 34.566698 42.873439 H 0.0 **** 0.0
1594 O 24.088685 28.175546 10.459844 O 0.0 **** 0.0
1595 H 23.132215 27.884212 10.478631 H 0.0 **** 0.0
1596 H 24.294362 28.697657 11.287588 H 0.0 **** 0.0
1597 O 14.535856 45.478682 5.625035 O 0.0 **** 0.0
1598 H 13.786148 44.91216 5.967166 H 0.0 **** 0.0
1599 H 14.375452 46.432561 5.878902 H 0.0 **** 0.0
1600 O 0.578028 15.90711 43.493127 O 0.0 **** 0.0
1601 H 0.000766 15.090683 43.476477 H 0.0 **** 0.0
1602 H 0.000493 16.723389 43.507464 H 0.0 **** 0.0
1603 O 2.855321 7.894006 45.181444 O 0.0 **** 0.0
1604 H 2.998216 8.062371 46.156788 H 0.0 **** 0.0
1605 H 2.837473 6.908515 45.012469 H 0.0 **** 0.0
1606 O 14.574609 42.754693 20.699889 O 0.0 **** 0.0
1607 H 15.216234 41.988496 20.663515 H 0.0 **** 0.0
1608 H 15.083991 43.614356 20.739544 H 0.0 **** 0.0
1609 O 43.590549 16.779289 3.445269 O 0.0 **** 0.0
1610 H 43.252871 17.61887 3.870875 H 0.0 **** 0.0
1611 H 42.906664 16.432764 2.803175 H 0.0 **** 0.0
1612 O 47.42182 29.274831 12.418234 O 0.0 **** 0.0
1613 H 47.998793 28.47135 12.565148 H 0.0 **** 0.0
1614 H 47.999088 30.070867 12.236156 H 0.0 **** 0.0
1615 O 38.821664 17.100901 23.561822 O 0.0 **** 0.0
1616 H 39.792189 16.859949 23.552555 H 0.0 **** 0.0
1617 H 38.649668 17.763267 24.291034 H 0.0 **** 0.0
1618 O 19.507373 37.55262 45.405626 O 0.0 **** 0.0
1619 H 20.117796 37.378072 46.17827 H 0.0 **** 0.0
1620 H 19.807414 38.375571 44.923142 H 0.0 **** 0.0
1621 O 15.400739 46.76431 19.133029 O 0.0 **** 0.0
1622 H 15.29044 46.003727 19.772882 H 0.0 **** 0.0
1623 H 15.590239 46.405949 18.218846 H 0.0 **** 0.0
1624 O 9.842638 44.725919 20.022356 O 0.0 **** 0.0
1625 H 10.06369 45.412934 19.330106 H 0.0 **** 0.0
1626 H 10.356188 44.918212 20.858629 H 0.0 **** 0.0
1627 O 39.982176 14.942192 37.936873 O 0.0 **** 0.0
1628 H 40.798604 15.466906 38.178085 H 0.0 **** 0.0
1629 H 39.165676 15.473039 38.164013 H 0.0 **** 0.0
1630 O 4.172169 47.589291 32.350862 O 0.0 **** 0.0
1631 H 4.106998 46.595367 32.439913 H 0.0 **** 0.0
1632 H 3.280318 48.00007 32.540404 H 0.0 **** 0.0
1633 O 16.34514 6.916833 37.46425 O 0.0 **** 0.0
1634 H 16.643171 5.963671 37.516435 H 0.0 **** 0.0
1635 H 15.402232 6.953538 37.133131 H 0.0 **** 0.0
1636 O 19.569236 0.760078 36.093267 O 0.0 **** 0.0
1637 H 19.662106 1.726106 36.334575 H 0.0 **** 0.0
1638 H 19.559047 0.207816 36.926912 H 0.0 **** 0.0
1639 O 9.201554 9.841369 14.769317 O 0.0 **** 0.0
1640 H 9.908504 9.599535 15.433998 H 0.0 **** 0.0
1641 H 9.026834 10.825109 14.811649 H 0.0 **** 0.0
1642 O 24.260736 2.699951 15.176323 O 0.0 **** 0.0
1643 H 23.593165 2.957129 15.875088 H 0.0 **** 0.0
1644 H 24.411134 1.711762 15.206749 H 0.0 **** 0.0
1645 O 4.442737 43.660546 16.164087 O 0.0 **** 0.0
1646 H 3.726902 43.909682 16.816448 H 0.0 **** 0.0
1647 H 4.75407 44.479554 15.682049 H 0.0 **** 0.0
1648 O 12.284275 21.710187 17.449719 O 0.0 **** 0.0
1649 H 13.192665 22.127511 17.476746 H 0.0 **** 0.0
1650 H 12.128279 21.309601 16.546802 H 0.0 **** 0.0
1651 O 15.96476 45.445843 7.298388 O 0.0 **** 0.0
1652 H 16.508615 45.810274 6.542429 H 0.0 **** 0.0
1653 H 15.491694 46.195966 7.760543 H 0.0 **** 0.0
1654 O 21.157056 1.315019 45.838715 O 0.0 **** 0.0
1655 H 20.938456 0.353078 45.67456 H 0.0 **** 0.0
1656 H 20.309894 1.840397 45.918445 H 0.0 **** 0.0
1657 O 29.534492 9.35193 3.258584 O 0.0 **** 0.0
1658 H 29.780484 8.427639 3.550539 H 0.0 **** 0.0
1659 H 30.357729 9.918063 3.215704 H 0.0 **** 0.0
1660 O 13.013422 32.403748 1.520029 O 0.0 **** 0.0
1661 H 12.02539 32.349863 1.375282 H 0.0 **** 0.0
1662 H 13.207622 32.392952 2.500964 H 0.0 **** 0.0
1663 O 18.640142 16.864423 30.522242 O 0.0 **** 0.0
1664 H 19.5291 17.306406 30.642527 H 0.0 **** 0.0
1665 H 18.064225 17.429497 29.931417 H 0.0 **** 0.0
1666 O 16.919362 18.580183 45.038983 O 0.0 **** 0.0
1667 H 16.980707 17.775729 44.448092 H 0.0 **** 0.0
1668 H 17.561762 19.27733 44.720593 H 0.0 **** 0.0
1669 O 7.064394 36.822839 5.168256 O 0.0 **** 0.0
1670 H 7.475936 36.274657 4.440112 H 0.0 **** 0.0
1671 H 6.757015 36.220962 5.905363 H 0.0 **** 0.0
1672 O 18.761691 18.15702 11.32449 O 0.0 **** 0.0
1673 H 18.363157 17.330479 10.926917 H 0.0 **** 0.0
1674 H 19.093726 18.752173 10.592637 H 0.0 **** 0.0
1675 O 45.154364 20.953801 3.324596 O 0.0 **** 0.0
1676 H 45.081895 21.013753 4.320194 H 0.0 **** 0.0
1677 H 45.968924 20.427366 3.080832 H 0.0 **** 0.0
1678 O 10.216167 23.200247 46.645279 O 0.0 **** 0.0
1679 H 10.744388 23.861096 46.11206 H 0.0 **** 0.0
1680 H 9.663328 23.684828 47.323228 H 0.0 **** 0.0
1681 O 14.482669 46.134568 28.071183 O 0.0 **** 0.0
1682 H 13.784224 45.428804 28.190076 H 0.0 **** 0.0
1683 H 15.374357 45.769444 28.338837 H 0.0 **** 0.0
1684 O 0.841411 44.496164 44.112324 O 0.0 **** 0.0
1685 H 0.702818 44.387734 45.096751 H 0.0 **** 0.0
1686 H -0.000349 44.255935 43.628802 H 0.0 **** 0.0
1687 O 35.945306 43.36255 14.529911 O 0.0 **** 0.0
1688 H 36.074456 42.37721 14.418162 H 0.0 **** 0.0
1689 H 35.074471 43.633196 14.119471 H 0.0 **** 0.0
1690 O 21.801988 0.270617 18.518147 O 0.0 **** 0.0
1691 H 22.53793 0.2775 19.195203 H 0.0 **** 0.0
1692 H 22.187147 0.409829 17.605822 H 0.0 **** 0.0
1693 O 47.695597 0.756183 20.26282 O 0.0 **** 0.0
1694 H 46.845104 0.371176 19.90436 H 0.0 **** 0.0
1695 H 47.532946 1.693171 20.57211 H 0.0 **** 0.0
1696 O 44.186539 17.875352 10.742124 O 0.0 **** 0.0
1697 H 44.338734 18.538363 11.475143 H 0.0 **** 0.0
1698 H 43.691029 18.314809 9.99285 H 0.0 **** 0.0
1699 O 35.489929 42.410442 21.475058 O 0.0 **** 0.0
1700 H 34.513206 42.621843 21.437846 H 0.0 **** 0.0
1701 H 36.016958 43.258114 21.413774 H 0.0 **** 0.0
1702 O 10.261701 9.139049 0.661181 O 0.0 **** 0.0
1703 H 11.025155 9.750533 0.453124 H 0.0 **** 0.0
1704 H 9.425878 9.67622 0.77481 H 0.0 **** 0.0
1705 O 19.373324 11.204486 19.727612 O 0.0 **** 0.0
1706 H 19.95444 11.712223 19.091554 H 0.0 **** 0.0
1707 H 18.575 11.758304 19.964314 H 0.0 **** 0.0
1708 O 9.072995 18.214675 20.574251 O 0.0 **** 0.0
1709 H 8.859269 19.132335 20.239164 H 0.0 **** 0.0
1710 H 8.236341 17.776835 20.903445 H 0.0 **** 0.0
1711 O 9.818145 38.903674 0.573029 O 0.0 **** 0.0
1712 H 9.37233 39.77095 0.794713 H 0.0 **** 0.0
1713 H 10.721261 39.083337 0.182944 H 0.0 **** 0.0
1714 O 6.042376 41.331009 18.91082 O 0.0 **** 0.0
1715 H 6.475312 40.524173 18.508768 H 0.0 **** 0.0
1716 H 6.677438 41.767109 19.548452 H 0.0 **** 0.0
1717 O 15.705657 32.855684 46.794146 O 0.0 **** 0.0
1718 H 16.574865 32.363074 46.750844 H 0.0 **** 0.0
1719 H 14.983535 32.231788 47.093073 H 0.0 **** 0.0
1720 O 40.565754 12.654661 11.181746 O 0.0 **** 0.0
1721 H 40.312518 11.802127 11.639043 H 0.0 **** 0.0
1722 H 39.828177 13.321586 11.287834 H 0.0 **** 0.0
1723 O 8.880254 38.478214 6.516228 O 0.0 **** 0.0
1724 H 8.419469 39.323585 6.786577 H 0.0 **** 0.0
1725 H 9.634694 38.693502 5.89612 H 0.0 **** 0.0
1726 O 13.421844 10.355686 32.445431 O 0.0 **** 0.0
1727 H 14.175538 10.267246 31.794136 H 0.0 **** 0.0
1728 H 13.746209 10.820327 33.269421 H 0.0 **** 0.0
1729 O 39.590863 6.92733 24.312831 O 0.0 **** 0.0
1730 H 38.599846 6.795159 24.334721 H 0.0 **** 0.0
1731 H 39.795731 7.905014 24.265642 H 0.0 **** 0.0
1732 O 21.513347 1.736978 7.165806 O 0.0 **** 0.0
1733 H 21.662474 0.953844 6.562046 H 0.0 **** 0.0
1734 H 20.539058 1.961522 7.185914 H 0.0 **** 0.0
1735 O 18.011186 17.896441 20.925878 O 0.0 **** 0.0
1736 H 18.125542 17.090933 20.344378 H 0.0 **** 0.0
1737 H 18.821357 18.010015 21.501019 H 0.0 **** 0.0
1738 O 20.820533 29.895286 44.180916 O 0.0 **** 0.0
1739 H 21.50545 29.98036 43.457235 H 0.0 **** 0.0
1740 H 20.269656 29.075598 44.023723 H 0.0 **** 0.0
1741 O 17.515021 25.318315 35.330648 O 0.0 **** 0.0
1742 H 18.287152 24.988033 34.787703 H 0.0 **** 0.0
1743 H 17.782552 25.371201 36.292778 H 0.0 **** 0.0
1744 O 16.028123 36.20316 22.458631 O 0.0 **** 0.0
1745 H 16.008757 36.083886 23.451335 H 0.0 **** 0.0
1746 H 16.025964 37.179022 22.240109 H 0.0 **** 0.0
1747 O 8.840303 39.722355 9.653068 O 0.0 **** 0.0
1748 H 8.283393 38.963579 9.990963 H 0.0 **** 0.0
1749 H 9.296502 39.449548 8.806001 H 0.0 **** 0.0
1750 O 37.63338 36.891927 6.914338 O 0.0 **** 0.0
1751 H 38.530934 37.300847 6.749282 H 0.0 **** 0.0
1752 H 37.522462 36.71512 7.892346 H 0.0 **** 0.0
1753 O 3.534343 44.250912 19.581595 O 0.0 **** 0.0
1754 H 3.116605 44.688205 20.378045 H 0.0 **** 0.0
1755 H 4.306486 43.688269 19.877045 H 0.0 **** 0.0
1756 O 38.024411 21.763918 37.341002 O 0.0 **** 0.0
1757 H 37.204639 21.49865 36.833391 H 0.0 **** 0.0
1758 H 38.48433 22.512637 36.863554 H 0.0 **** 0.0
1759 O 32.994356 37.542306 21.157394 O 0.0 **** 0.0
1760 H 32.311332 37.102011 21.740216 H 0.0 **** 0.0
1761 H 33.795296 37.782713 21.705812 H 0.0 **** 0.0
1762 O 12.603915 13.245839 38.620423 O 0.0 **** 0.0
1763 H 12.251849 12.566982 37.976013 H 0.0 **** 0.0
1764 H 13.412472 12.879948 39.081316 H 0.0 **** 0.0
1765 O 8.439942 24.349088 36.889439 O 0.0 **** 0.0
1766 H 8.484318 24.032763 37.837084 H 0.0 **** 0.0
1767 H 9.316104 24.757288 36.632973 H 0.0 **** 0.0
1768 O 43.026761 14.199203 21.406179 O 0.0 **** 0.0
1769 H 43.988772 14.464441 21.471352 H 0.0 **** 0.0
1770 H 42.454357 15.019211 21.404344 H 0.0 **** 0.0
1771 O 42.947967 33.876553 9.420635 O 0.0 **** 0.0
1772 H 43.084891 33.695584 10.394578 H 0.0 **** 0.0
1773 H 42.601256 34.806773 9.300025 H 0.0 **** 0.0
1774 O 41.442435 37.589388 45.320902 O 0.0 **** 0.0
1775 H 42.162932 36.99901 44.957032 H 0.0 **** 0.0
1776 H 40.575526 37.090924 45.329031 H 0.0 **** 0.0
1777 O 37.519202 23.361731 32.235749 O 0.0 **** 0.0
1778 H 38.117291 22.563056 32.168888 H 0.0 **** 0.0
1779 H 38.071589 24.194925 32.208933 H 0.0 **** 0.0
1780 O 21.74679 16.244755 39.277518 O 0.0 **** 0.0
1781 H 20.747947 16.212384 39.313955 H 0.0 **** 0.0
1782 H 22.125618 15.627414 39.967041 H 0.0 **** 0.0
1783 O 3.427033 8.160571 4.208199 O 0.0 **** 0.0
1784 H 3.739543 9.102377 4.332303 H 0.0 **** 0.0
1785 H 2.759549 7.934677 4.917776 H 0.0 **** 0.0
1786 O 36.585406 41.897242 35.88313 O 0.0 **** 0.0
1787 H 35.89894 41.968594 35.159433 H 0.0 **** 0.0
1788 H 36.297719 42.442786 36.670329 H 0.0 **** 0.0
1789 O 32.580122 30.620335 27.332412 O 0.0 **** 0.0
1790 H 31.783309 30.068566 27.086033 H 0.0 **** 0.0
1791 H 33.413886 30.092029 27.171809 H 0.0 **** 0.0
1792 O 14.219251 20.497805 41.698304 O 0.0 **** 0.0
1793 H 14.837083 20.427879 42.481538 H 0.0 **** 0.0
1794 H 14.551595 19.912864 40.958401 H 0.0 **** 0.0
1795 O 14.439488 19.261002 3.085515 O 0.0 **** 0.0
1796 H 15.040851 20.053492 2.983602 H 0.0 **** 0.0
1797 H 13.983732 19.074366 2.215161 H 0.0 **** 0.0
1798 O 9.802725 2.974567 26.919187 O 0.0 **** 0.0
1799 H 10.404715 2.828009 27.704167 H 0.0 **** 0.0
1800 H 8.863955 3.103808 27.238672 H 0.0 **** 0.0
1801 O 11.042931 8.304848 21.843768 O 0.0 **** 0.0
1802 H 10.700083 7.743872 21.090227 H 0.0 **** 0.0
1803 H 11.936716 7.962837 22.134009 H 0.0 **** 0.0
1804 O 18.89212 18.89324 13.565023 O 0.0 **** 0.0
1805 H 19.757599 18.406011 13.44833 H 0.0 **** 0.0
1806 H 18.42939 18.558684 14.386009 H 0.0 **** 0.0
1807 O 3.023945 43.182381 13.340329 O 0.0 **** 0.0
1808 H 2.030926 43.190948 13.458242 H 0.0 **** 0.0
1809 H 3.464759 43.404411 14.21007 H 0.0 **** 0.0
1810 O 31.460259 43.456305 39.014304 O 0.0 **** 0.0
1811 H 30.78924 43.348671 38.280676 H 0.0 **** 0.0
1812 H 31.131058 42.993776 39.837563 H 0.0 **** 0.0
1813 O 22.597613 31.135138 34.051047 O 0.0 **** 0.0
1814 H 22.103531 30.578001 33.383555 H 0.0 **** 0.0
1815 H 21.955538 31.486088 34.73269 H 0.0 **** 0.0
1816 O 6.439435 23.087539 1.312706 O 0.0 **** 0.0
1817 H 6.439025 23.687447 2.112814 H 0.0 **** 0.0
1818 H 7.35006 23.083826 0.899412 H 0.0 **** 0.0
1819 O 1.003534 6.02777 19.711129 O 0.0 **** 0.0
1820 H 1.26971 5.113091 19.406868 H 0.0 **** 0.0
1821 H 0.045853 6.192101 19.474685 H 0.0 **** 0.0
1822 O 26.324801 11.501267 45.907171 O 0.0 **** 0.0
1823 H 25.439527 11.326907 45.475951 H 0.0 **** 0.0
1824 H 26.697817 10.643553 46.261077 H 0.0 **** 0.0
1825 O 17.18274 44.903423 19.555976 O 0.0 **** 0.0
1826 H 17.698333 45.149728 18.735269 H 0.0 **** 0.0
1827 H 17.80734 44.835151 20.333971 H 0.0 **** 0.0
1828 O 21.439494 24.331583 17.766158 O 0.0 **** 0.0
1829 H 20.446919 24.338979 17.644487 H 0.0 **** 0.0
1830 H 21.750679 23.392095 17.909652 H 0.0 **** 0.0
1831 O 17.863177 14.089611 6.946852 O 0.0 **** 0.0
1832 H 18.362791 13.224386 6.98968 H 0.0 **** 0.0
1833 H 17.860858 14.426867 6.005408 H 0.0 **** 0.0
1834 O 34.379658 28.613948 8.330183 O 0.0 **** 0.0
1835 H 34.487537 28.906683 7.380061 H 0.0 **** 0.0
1836 H 34.210256 29.412543 8.907775 H 0.0 **** 0.0
1837 O 12.639291 34.653475 19.971944 O 0.0 **** 0.0
1838 H 13.469821 34.284412 19.554721 H 0.0 **** 0.0
1839 H 12.462873 34.182415 20.83626 H 0.0 **** 0.0
1840 O 44.964459 11.49786 11.380236 O 0.0 **** 0.0
1841 H 44.648094 12.435617 11.236752 H 0.0 **** 0.0
1842 H 45.158985 11.356609 12.350943 H 0.0 **** 0.0
1843 O 20.076269 21.859537 30.048529 O 0.0 **** 0.0
1844 H 20.197445 22.762646 30.460563 H 0.0 **** 0.0
1845 H 19.423044 21.92242 29.293939 H 0.0 **** 0.0
1846 O 40.361551 15.893777 9.52574 O 0.0 **** 0.0
1847 H 39.427019 15.597572 9.328322 H 0.0 **** 0.0
1848 H 40.385217 16.890234 9.606833 H 0.0 **** 0.0
1849 O 39.294619 10.862269 22.428706 O 0.0 **** 0.0
1850 H 39.927687 10.172484 22.077301 H 0.0 **** 0.0
1851 H 39.738599 11.758278 22.418169 H 0.0 **** 0.0
1852 O 35.771809 3.52837 47.07743 O 0.0 **** 0.0
1853 H 35.120722 3.149205 47.734988 H 0.0 **** 0.0
1854 H 35.83655 4.518068 47.205371 H 0.0 **** 0.0
1855 O 5.098795 28.792594 24.741758 O 0.0 **** 0.0
1856 H 5.116588 28.046424 24.076193 H 0.0 **** 0.0
1857 H 4.150159 29.031531 24.949273 H 0.0 **** 0.0
1858 O 22.131926 40.988141 32.457865 O 0.0 **** 0.0
1859 H 22.924694 40.654407 31.947764 H 0.0 **** 0.0
1860 H 22.252096 41.95963 32.662391 H 0.0 **** 0.0
1861 O 28.476934 1.075673 37.180745 O 0.0 **** 0.0
1862 H 29.085999 1.786299 36.828448 H 0.0 **** 0.0
1863 H 29.001898 0.433949 37.739911 H 0.0 **** 0.0
1864 O 26.728947 15.696685 35.857912 O 0.0 **** 0.0
1865 H 26.056857 16.385368 36.130077 H 0.0 **** 0.0
1866 H 26.287177 14.800841 35.80927 H 0.0 **** 0.0
1867 O 37.713522 5.941355 12.748648 O 0.0 **** 0.0
1868 H 37.85977 5.616204 11.814329 H 0.0 **** 0.0
1869 H 37.303617 5.211152 13.295314 H 0.0 **** 0.0
1870 O 34.035597 21.610744 32.952642 O 0.0 **** 0.0
1871 H 33.418305 21.86289 32.207366 H 0.0 **** 0.0
1872 H 34.909211 22.083272 32.836111 H 0.0 **** 0.0
1873 O 14.126907 25.774706 44.343969 O 0.0 **** 0.0
1874 H 14.32356 25.207753 45.143941 H 0.0 **** 0.0
1875 H 14.954271 26.266464 44.072482 H 0.0 **** 0.0
1876 O 19.102627 36.904505 23.15027 O 0.0 **** 0.0
1877 H 19.216719 37.830841 23.509362 H 0.0 **** 0.0
1878 H 18.154868 36.774395 22.858913 H 0.0 **** 0.0
1879 O 28.214417 43.430854 13.871707 O 0.0 **** 0.0
1880 H 27.421955 43.427675 13.261742 H 0.0 **** 0.0
1881 H 28.527295 42.492129 14.016504 H 0.0 **** 0.0
1882 O 19.687337 30.193933 35.361871 O 0.0 **** 0.0
1883 H 19.341016 29.400094 35.861814 H 0.0 **** 0.0
1884 H 20.418983 29.905546 34.744141 H 0.0 **** 0.0
1885 O 13.655358 36.752682 14.053768 O 0.0 **** 0.0
1886 H 14.196016 35.962441 13.765198 H 0.0 **** 0.0
1887 H 12.8183 36.438223 14.501554 H 0.0 **** 0.0
1888 O 39.130094 20.833773 17.332565 O 0.0 **** 0.0
1889 H 38.61581 21.360544 16.655744 H 0.0 **** 0.0
1890 H 40.10234 20.850253 17.09905 H 0.0 **** 0.0
1891 O 10.434826 2.109805 19.655795 O 0.0 **** 0.0
1892 H 10.282611 3.098184 19.65644 H 0.0 **** 0.0
1893 H 11.417355 1.923928 19.643563 H 0.0 **** 0.0
1894 O 0.449443 30.009876 2.561656 O 0.0 **** 0.0
1895 H 1.436382 30.087765 2.702892 H 0.0 **** 0.0
1896 H 0.099261 30.864299 2.177732 H 0.0 **** 0.0
1897 O 18.627302 36.935318 12.043025 O 0.0 **** 0.0
1898 H 18.330577 37.59789 11.355264 H 0.0 **** 0.0
1899 H 18.037272 37.003217 12.847586 H 0.0 **** 0.0
1900 O 7.876101 35.406564 22.17004 O 0.0 **** 0.0
1901 H 8.861603 35.372563 22.003625 H 0.0 **** 0.0
1902 H 7.389551 35.380562 21.296738 H 0.0 **** 0.0
1903 O 8.809044 4.562604 38.101707 O 0.0 **** 0.0
1904 H 8.86388 3.65112 38.509448 H 0.0 **** 0.0
1905 H 8.25317 5.155481 38.684427 H 0.0 **** 0.0
1906 O 46.013655 7.598427 15.479037 O 0.0 **** 0.0
1907 H 46.859349 8.13215 15.481016 H 0.0 **** 0.0
1908 H 45.229475 8.216314 15.536848 H 0.0 **** 0.0
1909 O 42.827831 32.173559 39.878957 O 0.0 **** 0.0
1910 H 42.651813 32.917952 40.523131 H 0.0 **** 0.0
1911 H 43.38999 32.511867 39.124246 H 0.0 **** 0.0
1912 O 27.683329 18.484671 28.984511 O 0.0 **** 0.0
1913 H 26.717186 18.227201 28.966058 H 0.0 **** 0.0
1914 H 28.248238 17.659482 28.982387 H 0.0 **** 0.0
1915 O 33.686079 16.595826 47.998542 O 0.0 **** 0.0
1916 H 33.898627 17.571178 47.938752 H 0.0 **** 0.0
1917 H 34.536164 16.069138 48.002867 H 0.0 **** 0.0
1918 O 44.967292 37.510643 3.504485 O 0.0 **** 0.0
1919 H 45.909604 37.845163 3.5189 H 0.0 **** 0.0
1920 H 44.337568 38.286665 3.540553 H 0.0 **** 0.0
1921 O 35.831083 14.390231 37.218078 O 0.0 **** 0.0
1922 H 35.67064 15.350899 36.991282 H 0.0 **** 0.0
1923 H 36.737397 14.118279 36.894502 H 0.0 **** 0.0
1924 O 32.413928 15.259635 8.960174 O 0.0 **** 0.0
1925 H 31.495896 14.935095 8.732239 H 0.0 **** 0.0
1926 H 32.799712 15.745955 8.17613 H 0.0 **** 0.0
1927 O 37.808987 46.026613 19.429348 O 0.0 **** 0.0
1928 H 37.55161 45.269681 20.030076 H 0.0 **** 0.0
1929 H 36.99453 46.376399 18.966343 H 0.0 **** 0.0
1930 O 18.200181 27.021643 0.349633 O 0.0 **** 0.0
1931 H 17.653645 27.782756 0.000252 H 0.0 **** 0.0
1932 H 17.836199 26.159998 -0.004131 H 0.0 **** 0.0
1933 O 8.417509 5.107464 22.348128 O 0.0 **** 0.0
1934 H 9.161344 4.450994 22.473912 H 0.0 **** 0.0
1935 H 8.776728 6.037374 22.427446 H 0.0 **** 0.0
1936 O 37.142302 39.160689 5.051632 O 0.0 **** 0.0
1937 H 36.750205 38.24311 5.117743 H 0.0 **** 0.0
1938 H 37.202234 39.564086 5.964727 H 0.0 **** 0.0
1939 O 24.713465 3.912339 8.092454 O 0.0 **** 0.0
1940 H 25.479741 4.508675 8.33176 H 0.0 **** 0.0
1941 H 24.052988 4.423049 7.541993 H 0.0 **** 0.0
1942 O 4.844223 22.724652 29.336567 O 0.0 **** 0.0
1943 H 4.42129 23.362026 28.692404 H 0.0 **** 0.0
1944 H 5.117034 21.893329 28.852275 H 0.0 **** 0.0
1945 O 2.491456 40.046307 25.972116 O 0.0 **** 0.0
1946 H 2.39953 39.895356 24.987826 H 0.0 **** 0.0
1947 H 2.328182 39.187452 26.45768 H 0.0 **** 0.0
1948 O 4.333217 26.586397 16.250824 O 0.0 **** 0.0
1949 H 5.063735 27.227161 16.014547 H 0.0 **** 0.0
1950 H 3.522661 27.0965 16.538674 H 0.0 **** 0.0
1951 O 30.50532 45.512451 21.502279 O 0.0 **** 0.0
1952 H 31.115394 44.721625 21.551956 H 0.0 **** 0.0
1953 H 29.573586 45.203147 21.311842 H 0.0 **** 0.0
1954 O 39.207355 10.035566 33.690256 O 0.0 **** 0.0
1955 H 39.857252 10.607758 34.190549 H 0.0 **** 0.0
1956 H 38.584328 10.617646 33.167683 H 0.0 **** 0.0
1957 O 9.419427 18.620257 31.607254 O 0.0 **** 0.0
1958 H 10.414275 18.705958 31.661982 H 0.0 **** 0.0
1959 H 8.99797 19.509215 31.786674 H 0.0 **** 0.0
1960 O 40.262458 8.067247 35.498547 O 0.0 **** 0.0
1961 H 39.550797 8.769493 35.477256 H 0.0 **** 0.0
1962 H 40.941668 8.302053 36.193961 H 0.0 **** 0.0
1963 O 8.77321 45.245204 9.722287 O 0.0 **** 0.0
1964 H 9.018973 45.400703 10.679096 H 0.0 **** 0.0
1965 H 8.339999 46.066825 9.351705 H 0.0 **** 0.0
1966 O 46.315412 7.615829 3.002196 O 0.0 **** 0.0
1967 H 45.879606 7.052123 3.703888 H 0.0 **** 0.0
1968 H 47.271196 7.340193 2.899411 H 0.0 **** 0.0
1969 O 37.36273 8.702582 31.271668 O 0.0 **** 0.0
1970 H 38.212101 9.001482 31.706741 H 0.0 **** 0.0
1971 H 37.560562 8.364926 30.351388 H 0.0 **** 0.0
1972 O 35.429627 27.027634 5.295723 O 0.0 **** 0.0
1973 H 34.56162 26.862129 5.763949 H 0.0 **** 0.0
1974 H 36.186186 26.866902 5.929636 H 0.0 **** 0.0
1975 O 41.524065 24.461259 4.193723 O 0.0 **** 0.0
1976 H 42.284171 25.10958 4.149204 H 0.0 **** 0.0
1977 H 40.951022 24.673398 4.985356 H 0.0 **** 0.0
1978 O 16.625509 25.372053 42.944641 O 0.0 **** 0.0
1979 H 17.440832 25.951088 42.9501 H 0.0 **** 0.0
1980 H 16.00008 25.683865 42.229327 H 0.0 **** 0.0
1981 O 7.588913 39.646811 25.840419 O 0.0 **** 0.0
1982 H 8.362452 40.280539 25.830993 H 0.0 **** 0.0
1983 H 6.733768 40.164968 25.85785 H 0.0 **** 0.0
1984 O 39.85864 41.309014 11.910022 O 0.0 **** 0.0
1985 H 40.2926 40.412792 11.817676 H 0.0 **** 0.0
1986 H 40.561098 42.02078 11.9124 H 0.0 **** 0.0
1987 O 23.533563 16.101926 35.384451 O 0.0 **** 0.0
1988 H 23.606033 16.918162 34.811241 H 0.0 **** 0.0
1989 H 24.291636 15.482628 35.179859 H 0.0 **** 0.0
1990 O 33.183203 34.791725 9.473618 O 0.0 **** 0.0
1991 H 33.270261 35.280351 10.341793 H 0.0 **** 0.0
1992 H 32.799796 35.405011 8.783008 H 0.0 **** 0.0
1993 O 47.704981 18.970388 28.703669 O 0.0 **** 0.0
1994 H 48.00014 18.315186 29.399122 H 0.0 **** 0.0
1995 H 46.736171 18.827536 28.501031 H 0.0 **** 0.0
1996 O 7.16578 1.446091 30.095807 O 0.0 **** 0.0
1997 H 7.566672 1.747015 30.961136 H 0.0 **** 0.0
1998 H 6.327702 1.962387 29.919379 H 0.0 **** 0.0
1999 O 40.057938 42.957569 31.187006 O 0.0 **** 0.0
2000 H 40.107244 43.946457 31.327477 H 0.0 **** 0.0
2001 H 40.982047 42.575416 31.180319 H 0.0 **** 0.0
2002 O 45.57813 14.853041 38.288506 O 0.0 **** 0.0
2003 H 45.744306 14.114283 38.941717 H 0.0 **** 0.0
2004 H 46.452358 15.205472 37.954471 H 0.0 **** 0.0
2005 O 9.897333 33.59351 29.266894 O 0.0 **** 0.0
2006 H 10.641966 34.154006 29.629425 H 0.0 **** 0.0
2007 H 9.141629 34.184912 28.985435 H 0.0 **** 0.0
2008 O 5.148993 7.18291 31.267792 O 0.0 **** 0.0
2009 H 4.166922 7.264891 31.43773 H 0.0 **** 0.0
2010 H 5.398434 6.21595 31.214596 H 0.0 **** 0.0
2011 O 29.084015 25.116682 35.943444 O 0.0 **** 0.0
2012 H 28.095178 25.2525 35.881652 H 0.0 **** 0.0
2013 H 29.542989 26.005166 35.94511 H 0.0 **** 0.0
2014 O 1.39037 29.057294 26.371004 O 0.0 **** 0.0
2015 H 0.811797 28.268325 26.577991 H 0.0 **** 0.0
2016 H 2.312956 28.744047 26.145673 H 0.0 **** 0.0
2017 O 28.996129 6.401267 34.587414 O 0.0 **** 0.0
2018 H 29.843236 6.555681 35.095971 H 0.0 **** 0.0
2019 H 28.894231 5.424571 34.398354 H 0.0 **** 0.0
2020 O 47.341863 8.330095 6.377077 O 0.0 **** 0.0
2021 H 46.761041 8.256774 5.566316 H 0.0 **** 0.0
2022 H 46.805159 8.690491 7.140048 H 0.0 **** 0.0
2023 O 14.932171 21.817383 27.586923 O 0.0 **** 0.0
2024 H 15.92683 21.856675 27.491148 H 0.0 **** 0.0
2025 H 14.619355 20.88001 27.433491 H 0.0 **** 0.0
2026 O 27.420997 36.080801 26.570287 O 0.0 **** 0.0
2027 H 27.054345 37.011182 26.574735 H 0.0 **** 0.0
2028 H 27.158526 35.623205 25.720712 H 0.0 **** 0.0
2029 O 11.040533 14.348074 11.306939 O 0.0 **** 0.0
2030 H 10.181587 14.172127 10.825986 H 0.0 **** 0.0
2031 H 11.587049 13.510909 11.330124 H 0.0 **** 0.0
2032 O 21.762471 16.470385 15.663547 O 0.0 **** 0.0
2033 H 21.633189 15.699135 16.286863 H 0.0 **** 0.0
2034 H 22.220695 17.216349 16.146901 H 0.0 **** 0.0
2035 O 35.168029 34.688416 8.530858 O 0.0 **** 0.0
2036 H 35.664747 35.533192 8.730075 H 0.0 **** 0.0
2037 H 35.251745 34.061919 9.305814 H 0.0 **** 0.0
2038 O 17.47426 30.691613 3.191566 O 0.0 **** 0.0
2039 H 16.657428 31.219371 2.958498 H 0.0 **** 0.0
2040 H 17.217538 29.741812 3.370547 H 0.0 **** 0.0
2041 O 42.457409 38.935474 43.843596 O 0.0 **** 0.0
2042 H 41.685329 39.517948 43.589276 H 0.0 **** 0.0
2043 H 43.312424 39.379824 43.576077 H 0.0 **** 0.0
2044 O 35.376736 17.068969 34.966703 O 0.0 **** 0.0
2045 H 35.985099 16.287237 34.829397 H 0.0 **** 0.0
2046 H 34.462258 16.842557 34.631247 H 0.0 **** 0.0
2047 O 17.86426 19.145326 32.094821 O 0.0 **** 0.0
2048 H 17.264077 19.524239 31.390358 H 0.0 **** 0.0
2049 H 17.526831 18.245488 32.371401 H 0.0 **** 0.0
2050 O 40.378326 45.178246 2.007188 O 0.0 **** 0.0
2051 H 41.23441 45.288569 2.512175 H 0.0 **** 0.0
2052 H 39.608424 45.41042 2.601669 H 0.0 **** 0.0
2053 O 37.467998 11.060609 31.229664 O 0.0 **** 0.0
2054 H 37.130875 10.783282 30.329942 H 0.0 **** 0.0
2055 H 36.751629 10.917551 31.912608 H 0.0 **** 0.0
2056 O 28.389691 4.1931 23.510227 O 0.0 **** 0.0
2057 H 27.794913 4.14314 24.312603 H 0.0 **** 0.0
2058 H 28.978387 4.998356 23.581382 H 0.0 **** 0.0
2059 O 31.130502 47.558345 17.243682 O 0.0 **** 0.0
2060 H 31.640142 47.619381 18.101939 H 0.0 **** 0.0
2061 H 30.940078 46.598682 17.036682 H 0.0 **** 0.0
2062 O 12.288304 40.529405 15.117802 O 0.0 **** 0.0
2063 H 13.287778 40.523798 15.084898 H 0.0 **** 0.0
2064 H 11.949348 39.588593 15.111067 H 0.0 **** 0.0
2065 O 32.989239 16.443703 14.635548 O 0.0 **** 0.0
2066 H 32.171026 16.826084 14.206159 H 0.0 **** 0.0
2067 H 33.213197 16.971445 15.454935 H 0.0 **** 0.0
2068 O 16.727373 38.587713 47.762285 O 0.0 **** 0.0
2069 H 15.867281 39.091038 47.678802 H 0.0 **** 0.0
2070 H 16.533142 37.616155 47.897973 H 0.0 **** 0.0
2071 O 25.078615 9.362485 17.687103 O 0.0 **** 0.0
2072 H 24.416402 9.953824 17.226825 H 0.0 **** 0.0
2073 H 25.848916 9.184778 17.074632 H 0.0 **** 0.0
2074 O 6.198277 36.850053 32.08438 O 0.0 **** 0.0
2075 H 5.526637 36.109897 32.050726 H 0.0 **** 0.0
2076 H 7.12055 36.463433 32.084545 H 0.0 **** 0.0
2077 O 8.624366 2.14786 18.215587 O 0.0 **** 0.0
2078 H 7.627456 2.226584 18.221635 H 0.0 **** 0.0
2079 H 9.023201 2.992375 17.858112 H 0.0 **** 0.0
2080 O 11.483687 45.810891 14.789943 O 0.0 **** 0.0
2081 H 12.427498 45.882159 14.467134 H 0.0 **** 0.0
2082 H 11.1404 46.721604 15.019764 H 0.0 **** 0.0
2083 O 12.488237 13.924009 8.887436 O 0.0 **** 0.0
2084 H 13.474143 13.964059 9.050063 H 0.0 **** 0.0
2085 H 12.24271 13.015062 8.550397 H 0.0 **** 0.0
2086 O 22.241959 6.30206 7.888975 O 0.0 **** 0.0
2087 H 22.042896 6.968604 8.607415 H 0.0 **** 0.0
2088 H 21.67742 5.487757 8.02414 H 0.0 **** 0.0
2089 O 3.149388 0.201665 35.776945 O 0.0 **** 0.0
2090 H 3.621538 1.078849 35.689278 H 0.0 **** 0.0
2091 H 2.16452 0.34158 35.674373 H 0.0 **** 0.0
2092 O 11.590342 5.564808 40.690393 O 0.0 **** 0.0
2093 H 12.365013 4.967955 40.899474 H 0.0 **** 0.0
2094 H 10.761656 5.013556 40.593116 H 0.0 **** 0.0
2095 O 7.561582 10.399581 12.410231 O 0.0 **** 0.0
2096 H 8.533136 10.162652 12.413477 H 0.0 **** 0.0
2097 H 7.016156 9.571443 12.539692 H 0.0 **** 0.0
2098 O 21.098122 10.532898 6.218351 O 0.0 **** 0.0
2099 H 22.006451 10.244638 5.915188 H 0.0 **** 0.0
2100 H 20.591534 9.739002 6.554743 H 0.0 **** 0.0
2101 O 17.695335 16.278767 22.379943 O 0.0 **** 0.0
2102 H 16.95159 16.871858 22.688405 H 0.0 **** 0.0
2103 H 18.449508 16.321748 23.035259 H 0.0 **** 0.0
2104 O 28.968072 37.188252 3.684534 O 0.0 **** 0.0
2105 H 28.211011 37.834032 3.783986 H 0.0 **** 0.0
2106 H 29.60826 37.305743 4.443755 H 0.0 **** 0.0
2107 O 23.212826 16.949992 41.35096 O 0.0 **** 0.0
2108 H 23.366349 16.039863 41.735876 H 0.0 **** 0.0
2109 H 22.259188 17.215414 41.493046 H 0.0 **** 0.0
2110 O 41.441947 43.523423 9.236384 O 0.0 **** 0.0
2111 H 41.01179 44.372097 9.54425 H 0.0 **** 0.0
2112 H 40.867853 42.746224 9.494148 H 0.0 **** 0.0
2113 O 21.013365 44.151986 11.214713 O 0.0 **** 0.0
2114 H 20.6542 43.720315 10.387232 H 0.0 **** 0.0
2115 H 20.513138 43.8129 12.011492 H 0.0 **** 0.0
2116 O 9.579593 17.925606 17.30528 O 0.0 **** 0.0
2117 H 9.816916 18.587999 16.594663 H 0.0 **** 0.0
2118 H 10.084 17.076031 17.150818 H 0.0 **** 0.0
2119 O 14.114847 46.272662 2.06865 O 0.0 **** 0.0
2120 H 14.592937 45.963451 2.89077 H 0.0 **** 0.0
2121 H 13.332287 45.675148 1.893608 H 0.0 **** 0.0
2122 O 28.09594 22.401026 0.69478 O 0.0 **** 0.0
2123 H 27.429096 23.066053 1.031116 H 0.0 **** 0.0
2124 H 27.708677 21.481003 0.755181 H 0.0 **** 0.0
2125 O 15.752242 6.497307 6.681414 O 0.0 **** 0.0
2126 H 15.882363 7.488823 6.676136 H 0.0 **** 0.0
2127 H 16.634754 6.044677 6.5535 H 0.0 **** 0.0
2128 O 14.031897 31.648634 35.516845 O 0.0 **** 0.0
2129 H 14.598253 31.878564 34.725368 H 0.0 **** 0.0
2130 H 13.083698 31.909357 35.335174 H 0.0 **** 0.0
2131 O 23.12618 30.966099 0.64735 O 0.0 **** 0.0
2132 H 22.36783 30.903697 -0.001552 H 0.0 **** 0.0
2133 H 23.352515 31.927503 0.803995 H 0.0 **** 0.0
2134 O 27.431057 31.116516 45.547038 O 0.0 **** 0.0
2135 H 27.671703 30.412622 46.215384 H 0.0 **** 0.0
2136 H 28.26134 31.580348 45.237921 H 0.0 **** 0.0
2137 O 1.231469 43.18877 31.479988 O 0.0 **** 0.0
2138 H 2.08851 43.442994 31.928221 H 0.0 **** 0.0
2139 H 1.280608 42.234982 31.183446 H 0.0 **** 0.0
2140 O 27.03356 33.807054 45.099713 O 0.0 **** 0.0
2141 H 27.297571 34.246518 45.958335 H 0.0 **** 0.0
2142 H 27.778941 33.892661 44.438547 H 0.0 **** 0.0
2143 O 4.45677 20.158258 33.960587 O 0.0 **** 0.0
2144 H 3.459222 20.093583 33.932695 H 0.0 **** 0.0
2145 H 4.734414 21.103382 33.788198 H 0.0 **** 0.0
2146 O 30.462849 33.357692 0.798277 O 0.0 **** 0.0
2147 H 30.356102 33.951166 0.000495 H 0.0 **** 0.0
2148 H 31.421132 33.085281 0.885166 H 0.0 **** 0.0
2149 O 37.775098 26.058142 33.60491 O 0.0 **** 0.0
2150 H 37.377935 26.223932 32.702226 H 0.0 **** 0.0
2151 H 37.435933 26.743609 34.249243 H 0.0 **** 0.0
2152 O 13.249011 0.768169 45.009799 O 0.0 **** 0.0
2153 H 14.079306 0.210816 45.015291 H 0.0 **** 0.0
2154 H 13.353968 1.528812 45.650478 H 0.0 **** 0.0
2155 O 45.182937 28.466442 9.472791 O 0.0 **** 0.0
2156 H 44.277503 28.117539 9.230884 H 0.0 **** 0.0
2157 H 45.847137 27.719487 9.441816 H 0.0 **** 0.0
2158 O 27.930861 27.386652 44.552008 O 0.0 **** 0.0
2159 H 28.747666 26.977888 44.144818 H 0.0 **** 0.0
2160 H 27.138609 27.196532 43.972134 H 0.0 **** 0.0
2161 O 10.948204 39.791014 12.431936 O 0.0 **** 0.0
2162 H 10.631304 40.71942 12.6261 H 0.0 **** 0.0
2163 H 11.629045 39.817515 11.699942 H 0.0 **** 0.0
2164 O 32.71836 7.361341 35.063103 O 0.0 **** 0.0
2165 H 32.894224 8.271823 35.43748 H 0.0 **** 0.0
2166 H 31.997702 7.418605 34.372137 H 0.0 **** 0.0
2167 O 41.213748 7.418497 33.628984 O 0.0 **** 0.0
2168 H 41.935437 6.748368 33.802636 H 0.0 **** 0.0
2169 H 41.595685 8.341143 33.682941 H 0.0 **** 0.0
2170 O 30.170419 37.432215 47.801062 O 0.0 **** 0.0
2171 H 29.644528 37.580096 46.963426 H 0.0 **** 0.0
2172 H 30.211273 36.453113 48.00044 H 0.0 **** 0.0
2173 O 46.133914 25.59574 3.747321 O 0.0 **** 0.0
2174 H 46.312241 24.954828 3.000666 H 0.0 **** 0.0
2175 H 45.394071 26.21537 3.485109 H 0.0 **** 0.0
2176 O 47.19432 41.598446 33.169758 O 0.0 **** 0.0
2177 H 47.48064 42.507777 32.867762 H 0.0 **** 0.0
2178 H 48.000321 41.059398 33.414405 H 0.0 **** 0.0
2179 O 39.914942 14.574333 42.952099 O 0.0 **** 0.0
2180 H 39.976271 13.576185 42.952905 H 0.0 **** 0.0
2181 H 40.829339 14.964328 42.843256 H 0.0 **** 0.0
2182 O 28.143469 33.32912 23.173168 O 0.0 **** 0.0
2183 H 27.568802 34.144888 23.107264 H 0.0 **** 0.0
2184 H 27.650618 32.543208 22.799666 H 0.0 **** 0.0
2185 O 29.580243 18.833306 17.400756 O 0.0 **** 0.0
2186 H 30.284641 19.536692 17.49633 H 0.0 **** 0.0
2187 H 29.977356 17.935747 17.592465 H 0.0 **** 0.0
2188 O 16.432662 46.754647 43.577426 O 0.0 **** 0.0
2189 H 16.784299 47.689288 43.630916 H 0.0 **** 0.0
2190 H 15.433091 46.775392 43.555275 H 0.0 **** 0.0
2191 O 13.659669 19.526079 45.244255 O 0.0 **** 0.0
2192 H 13.5371 20.4786 44.965428 H 0.0 **** 0.0
2193 H 14.370368 19.103075 44.682083 H 0.0 **** 0.0
2194 O 35.789286 39.307777 20.800816 O 0.0 **** 0.0
2195 H 35.366086 40.203493 20.664224 H 0.0 **** 0.0
2196 H 36.784597 39.403663 20.785821 H 0.0 **** 0.0
2197 O 42.975964 10.264389 44.721431 O 0.0 **** 0.0
2198 H 43.443597 9.437313 45.033404 H 0.0 **** 0.0
2199 H 43.515132 11.067684 44.974569 H 0.0 **** 0.0
2200 O 41.37869 2.097221 34.192131 O 0.0 **** 0.0
2201 H 40.691959 2.771865 33.921354 H 0.0 **** 0.0
2202 H 40.94032 1.367763 34.717284 H 0.0 **** 0.0
2203 O 8.74676 0.895135 33.807892 O 0.0 **** 0.0
2204 H 8.088247 0.653845 34.520775 H 0.0 **** 0.0
2205 H 9.652055 1.01228 34.216281 H 0.0 **** 0.0
2206 O 2.897973 28.570707 32.429963 O 0.0 **** 0.0
2207 H 3.014087 27.752621 31.866655 H 0.0 **** 0.0
2208 H 2.005669 28.981087 32.241694 H 0.0 **** 0.0
2209 O 15.637482 24.753865 36.327799 O 0.0 **** 0.0
2210 H 15.631708 25.664556 36.740924 H 0.0 **** 0.0
2211 H 15.250945 24.093407 36.971576 H 0.0 **** 0.0
2212 O 12.464119 21.709771 3.813988 O 0.0 **** 0.0
2213 H 12.709332 22.035442 4.727154 H 0.0 **** 0.0
2214 H 13.151105 21.055393 3.497914 H 0.0 **** 0.0
2215 O 15.795987 30.745456 7.524845 O 0.0 **** 0.0
2216 H 16.400978 31.515201 7.728664 H 0.0 **** 0.0
2217 H 14.88971 31.089742 7.279506 H 0.0 **** 0.0
2218 O 18.21716 20.428899 37.728447 O 0.0 **** 0.0
2219 H 17.440417 20.09585 37.193835 H 0.0 **** 0.0
2220 H 18.309729 21.416583 37.602059 H 0.0 **** 0.0
2221 O 13.612253 23.278524 35.750942 O 0.0 **** 0.0
2222 H 12.978279 23.129089 34.992122 H 0.0 **** 0.0
2223 H 14.024948 22.407318 36.016924 H 0.0 **** 0.0
2224 O 32.093971 4.494503 35.425301 O 0.0 **** 0.0
2225 H 31.339901 3.837692 35.431735 H 0.0 **** 0.0
2226 H 31.726441 5.423434 35.379785 H 0.0 **** 0.0
2227 O 12.594546 20.962482 34.97624 O 0.0 **** 0.0
2228 H 11.97432 20.18422 34.877792 H 0.0 **** 0.0
2229 H 13.286421 20.930589 34.254883 H 0.0 **** 0.0
2230 O 18.574042 15.782441 16.526874 O 0.0 **** 0.0
2231 H 18.496265 14.809425 16.744251 H 0.0 **** 0.0
2232 H 19.50893 16.089898 16.704408 H 0.0 **** 0.0
2233 O 13.093651 15.232963 0.472007 O 0.0 **** 0.0
2234 H 12.384295 14.53684 0.582873 H 0.0 **** 0.0
2235 H 13.551399 15.384804 1.348062 H 0.0 **** 0.0
2236 O 23.935292 4.714054 28.635868 O 0.0 **** 0.0
2237 H 24.403473 5.385477 28.06136 H 0.0 **** 0.0
2238 H 23.151645 5.146097 29.082297 H 0.0 **** 0.0
2239 O 8.239684 9.221706 38.677514 O 0.0 **** 0.0
2240 H 7.878813 8.334632 38.965497 H 0.0 **** 0.0
2241 H 8.207579 9.286676 37.680112 H 0.0 **** 0.0
2242 O 31.881845 13.977989 3.137342 O 0.0 **** 0.0
2243 H 32.276263 14.669852 2.532509 H 0.0 **** 0.0
2244 H 31.128971 14.380654 3.65802 H 0.0 **** 0.0
2245 O 32.125143 43.630092 30.024228 O 0.0 **** 0.0
2246 H 31.458604 44.371398 29.945146 H 0.0 **** 0.0
2247 H 31.871424 42.88639 29.405684 H 0.0 **** 0.0
2248 O 35.845091 27.875141 35.263499 O 0.0 **** 0.0
2249 H 35.69913 28.823474 35.545319 H 0.0 **** 0.0
2250 H 35.431877 27.260432 35.935399 H 0.0 **** 0.0
2251 O 24.309293 23.658655 39.178383 O 0.0 **** 0.0
2252 H 24.135654 23.708737 38.194816 H 0.0 **** 0.0
2253 H 24.991058 24.344971 39.43182 H 0.0 **** 0.0
2254 O 38.946595 26.0963 31.043151 O 0.0 **** 0.0
2255 H 39.868063 25.77001 31.254089 H 0.0 **** 0.0
2256 H 38.869413 26.264425 30.06038 H 0.0 **** 0.0
2257 O 27.32294 27.010722 40.38881 O 0.0 **** 0.0
2258 H 26.976219 26.072723 40.391223 H 0.0 **** 0.0
2259 H 26.618634 27.627277 40.74077 H 0.0 **** 0.0
2260 O 39.424777 44.742423 44.041876 O 0.0 **** 0.0
2261 H 38.740678 44.296387 43.464709 H 0.0 **** 0.0
2262 H 40.265529 44.200945 44.041256 H 0.0 **** 0.0
2263 O 35.675878 20.798769 38.688071 O 0.0 **** 0.0
2264 H 36.062808 21.214643 39.511112 H 0.0 **** 0.0
2265 H 36.198132 19.979369 38.451644 H 0.0 **** 0.0
2266 O 26.829928 43.352641 20.506353 O 0.0 **** 0.0
2267 H 26.615153 44.200684 20.021834 H 0.0 **** 0.0
2268 H 26.21049 42.628917 20.202078 H 0.0 **** 0.0
2269 O 35.343965 45.726901 32.701032 O 0.0 **** 0.0
2270 H 36.081345 46.076725 33.278923 H 0.0 **** 0.0
2271 H 34.594695 46.388868 32.679649 H 0.0 **** 0.0
2272 O 21.949258 10.501662 17.099404 O 0.0 **** 0.0
2273 H 21.826665 9.511225 17.035618 H 0.0 **** 0.0
2274 H 21.161136 10.96203 16.690764 H 0.0 **** 0.0
2275 O 12.622045 11.779549 17.21014 O 0.0 **** 0.0
2276 H 11.832011 11.195655 17.023121 H 0.0 **** 0.0
2277 H 13.463374 11.267372 17.037215 H 0.0 **** 0.0
2278 O 37.112718 46.666115 28.314613 O 0.0 **** 0.0
2279 H 37.370086 47.552442 28.699645 H 0.0 **** 0.0
2280 H 37.911532 46.244635 27.885296 H 0.0 **** 0.0
2281 O 5.494731 14.850427 22.809515 O 0.0 **** 0.0
2282 H 4.639637 14.82239 23.32729 H 0.0 **** 0.0
2283 H 6.023078 15.654604 23.081932 H 0.0 **** 0.0
2284 O 17.219928 23.991638 32.307747 O 0.0 **** 0.0
2285 H 18.061188 24.395424 32.667332 H 0.0 **** 0.0
2286 H 16.806224 24.617232 31.646276 H 0.0 **** 0.0
2287 O 32.32293 33.459656 47.851925 O 0.0 **** 0.0
2288 H 33.197268 33.934856 47.753031 H 0.0 **** 0.0
2289 H 31.576214 34.123539 47.810226 H 0.0 **** 0.0
2290 O 8.7248 11.183121 8.894856 O 0.0 **** 0.0
2291 H 7.826519 11.597699 8.748981 H 0.0 **** 0.0
2292 H 8.942631 10.580932 8.126755 H 0.0 **** 0.0
2293 O 3.097806 34.756734 42.613587 O 0.0 **** 0.0
2294 H 2.855864 33.790027 42.529902 H 0.0 **** 0.0
2295 H 2.374317 35.317432 42.21079 H 0.0 **** 0.0
2296 O 35.045409 33.236236 23.268368 O 0.0 **** 0.0
2297 H 34.267374 32.608071 23.256834 H 0.0 **** 0.0
2298 H 35.896995 32.711973 23.271992 H 0.0 **** 0.0
2299 O 28.151598 41.721968 36.623299 O 0.0 **** 0.0
2300 H 29.119923 41.629861 36.391078 H 0.0 **** 0.0
2301 H 28.013011 41.469166 37.580873 H 0.0 **** 0.0
2302 O 14.822579 2.281248 41.040943 O 0.0 **** 0.0
2303 H 15.073013 1.496065 40.474521 H 0.0 **** 0.0
2304 H 13.901146 2.585885 40.799652 H 0.0 **** 0.0
2305 O 18.443659 11.709465 41.936286 O 0.0 **** 0.0
2306 H 18.411371 12.487159 42.564151 H 0.0 **** 0.0
2307 H 17.6032 11.174767 42.024543 H 0.0 **** 0.0
2308 O 24.864455 39.497452 1.060625 O 0.0 **** 0.0
2309 H 24.942245 38.636256 1.562973 H 0.0 **** 0.0
2310 H 25.687092 39.637253 0.509456 H 0.0 **** 0.0
2311 O 22.55211 24.740073 21.280751 O 0.0 **** 0.0
2312 H 23.274644 24.048693 21.280599 H 0.0 **** 0.0
2313 H 22.963175 25.651713 21.281594 H 0.0 **** 0.0
2314 O 44.351562 40.149989 8.457409 O 0.0 **** 0.0
2315 H 44.390791 41.070783 8.069257 H 0.0 **** 0.0
2316 H 43.408887 39.936301 8.713852 H 0.0 **** 0.0
2317 O 39.003999 6.27208 35.327063 O 0.0 **** 0.0
2318 H 38.402172 6.77713 35.945765 H 0.0 **** 0.0
2319 H 39.770393 5.891453 35.844584 H 0.0 **** 0.0
2320 O 28.541774 12.135124 7.474213 O 0.0 **** 0.0
2321 H 27.800875 12.196305 8.143084 H 0.0 **** 0.0
2322 H 28.84479 11.185119 7.398482 H 0.0 **** 0.0
2323 O 39.484234 38.993743 31.924884 O 0.0 **** 0.0
2324 H 40.250181 39.419867 32.406348 H 0.0 **** 0.0
2325 H 39.635593 38.007038 31.865158 H 0.0 **** 0.0
2326 O 38.081255 28.459879 20.029309 O 0.0 **** 0.0
2327 H 38.346695 29.379826 19.740691 H 0.0 **** 0.0
2328 H 37.489316 28.050551 19.334958 H 0.0 **** 0.0
2329 O 46.2847 3.128593 38.528436 O 0.0 **** 0.0
2330 H 45.448209 3.64603 38.709004 H 0.0 **** 0.0
2331 H 47.078668 3.674872 38.795375 H 0.0 **** 0.0
2332 O 19.348771 4.623902 24.592479 O 0.0 **** 0.0
2333 H 19.081187 4.579027 23.629957 H 0.0 **** 0.0
2334 H 20.331649 4.458091 24.673226 H 0.0 **** 0.0
2335 O 44.544793 27.829428 25.98379 O 0.0 **** 0.0
2336 H 44.646916 26.836248 26.040608 H 0.0 **** 0.0
2337 H 43.576532 28.059883 25.886703 H 0.0 **** 0.0
2338 O 6.187865 29.265164 20.047464 O 0.0 **** 0.0
2339 H 6.191095 28.265351 20.02681 H 0.0 **** 0.0
2340 H 7.128954 29.602152 20.018246 H 0.0 **** 0.0
2341 O 17.739899 33.524968 26.413406 O 0.0 **** 0.0
2342 H 16.842363 33.284097 26.043983 H 0.0 **** 0.0
2343 H 17.705179 34.447171 26.798633 H 0.0 **** 0.0
2344 O 3.235756 18.568167 21.329822 O 0.0 **** 0.0
2345 H 3.085321 18.32319 22.287642 H 0.0 **** 0.0
2346 H 3.277945 19.563535 21.243071 H 0.0 **** 0.0
2347 O 16.705121 47.77103 22.929286 O 0.0 **** 0.0
2348 H 16.656714 47.133923 22.159991 H 0.0 **** 0.0
2349 H 15.77958 48.002589 23.228984 H 0.0 **** 0.0
2350 O 4.399033 9.8658 32.194428 O 0.0 **** 0.0
2351 H 5.19998 10.247543 31.733104 H 0.0 **** 0.0
2352 H 4.639464 9.624541 33.134667 H 0.0 **** 0.0
2353 O 40.560936 40.517471 30.526478 O 0.0 **** 0.0
2354 H 40.929038 39.845042 29.884291 H 0.0 **** 0.0
2355 H 39.572705 40.597098 30.395625 H 0.0 **** 0.0
2356 O 32.189661 14.083777 17.162451 O 0.0 **** 0.0
2357 H 31.718534 13.35641 17.66149 H 0.0 **** 0.0
2358 H 33.054684 13.734502 16.802165 H 0.0 **** 0.0
2359 O 8.924148 39.343469 17.877707 O 0.0 **** 0.0
2360 H 9.574528 38.626892 17.625542 H 0.0 **** 0.0
2361 H 8.181888 38.945211 18.416691 H 0.0 **** 0.0
2362 O 3.048315 38.503177 5.78037 O 0.0 **** 0.0
2363 H 2.578684 39.291312 6.178306 H 0.0 **** 0.0
2364 H 3.732266 38.819738 5.123054 H 0.0 **** 0.0
2365 O 30.291808 18.069023 46.379127 O 0.0 **** 0.0
2366 H 30.302174 18.45668 47.300907 H 0.0 **** 0.0
2367 H 29.348884 17.870476 46.111667 H 0.0 **** 0.0
2368 O 34.511996 10.275483 31.800282 O 0.0 **** 0.0
2369 H 34.710829 10.651251 32.705449 H 0.0 **** 0.0
2370 H 33.644851 10.646909 31.468371 H 0.0 **** 0.0
2371 O 39.963127 17.500826 13.713476 O 0.0 **** 0.0
2372 H 40.423029 18.34225 13.429647 H 0.0 **** 0.0
2373 H 40.645802 16.826972 13.99621 H 0.0 **** 0.0
2374 O 47.039788 32.752035 15.685558 O 0.0 **** 0.0
2375 H 48.006739 32.854961 15.918959 H 0.0 **** 0.0
2376 H 46.550272 32.353688 16.461287 H 0.0 **** 0.0
2377 O 39.591653 38.214623 34.341108 O 0.0 **** 0.0
2378 H 40.584655 38.23281 34.224145 H 0.0 **** 0.0
2379 H 39.266574 37.270635 34.283898 H 0.0 **** 0.0
2380 O 31.501201 16.555002 20.073821 O 0.0 **** 0.0
2381 H 32.265805 16.220698 20.624899 H 0.0 **** 0.0
2382 H 30.758386 16.846567 20.676547 H 0.0 **** 0.0
2383 O 10.826815 20.802963 24.41838 O 0.0 **** 0.0
2384 H 11.106375 21.213569 23.550444 H 0.0 **** 0.0
2385 H 9.882136 20.482812 24.346636 H 0.0 **** 0.0
2386 O 25.876033 13.885874 18.584246 O 0.0 **** 0.0
2387 H 26.331457 14.769981 18.479331 H 0.0 **** 0.0
2388 H 26.14738 13.280343 17.83607 H 0.0 **** 0.0
2389 O 14.711003 4.121888 42.988481 O 0.0 **** 0.0
2390 H 15.013909 4.635734 43.791148 H 0.0 **** 0.0
2391 H 15.508627 3.798141 42.479515 H 0.0 **** 0.0
2392 O 18.455509 23.822795 1.676601 O 0.0 **** 0.0
2393 H 19.454951 23.852035 1.658595 H 0.0 **** 0.0
2394 H 18.094309 24.754967 1.651063 H 0.0 **** 0.0
2395 O 11.571752 29.188985 30.761741 O 0.0 **** 0.0
2396 H 12.390609 29.218523 30.188448 H 0.0 **** 0.0
2397 H 11.152694 28.283241 30.697862 H 0.0 **** 0.0
2398 O 31.83752 36.547096 40.738861 O 0.0 **** 0.0
2399 H 31.372551 36.746019 41.601587 H 0.0 **** 0.0
2400 H 31.647915 37.276983 40.082067 H 0.0 **** 0.0
2401 O 39.533636 28.507406 26.062888 O 0.0 **** 0.0
2402 H 38.867902 29.195259 26.35223 H 0.0 **** 0.0
2403 H 39.204044 27.597653 26.315439 H 0.0 **** 0.0
2404 O 43.888179 47.205589 36.630226 O 0.0 **** 0.0
2405 H 44.037979 47.608852 37.533001 H 0.0 **** 0.0
2406 H 44.697566 46.684327 36.359592 H 0.0 **** 0.0
2407 O 28.148876 38.858609 44.286927 O 0.0 **** 0.0
2408 H 29.096207 38.886759 43.967812 H 0.0 **** 0.0
2409 H 27.67409 39.688961 43.995109 H 0.0 **** 0.0
2410 O 10.674807 16.324333 25.837072 O 0.0 **** 0.0
2411 H 10.144273 15.544489 25.504746 H 0.0 **** 0.0
2412 H 10.061086 17.093806 26.014047 H 0.0 **** 0.0
2413 O 15.86456 44.675605 30.704222 O 0.0 **** 0.0
2414 H 15.19727 44.368328 30.025718 H 0.0 **** 0.0
2415 H 16.053878 45.648168 30.568786 H 0.0 **** 0.0
2416 O 0.310418 38.811427 32.691346 O 0.0 **** 0.0
2417 H -0.004078 38.604294 33.617765 H 0.0 **** 0.0
2418 H -0.001852 39.724739 32.429789 H 0.0 **** 0.0
2419 O 5.441859 33.017091 -0.008081 O 0.0 **** 0.0
2420 H 6.113328 33.111073 0.727011 H 0.0 **** 0.0
2421 H 4.519474 33.081905 0.372797 H 0.0 **** 0.0
2422 O 47.060199 46.702704 26.189691 O 0.0 **** 0.0
2423 H 47.830735 46.238213 25.753132 H 0.0 **** 0.0
2424 H 47.39223 47.505506 26.684995 H 0.0 **** 0.0
2425 O 28.21823 21.119241 3.947292 O 0.0 **** 0.0
2426 H 27.460898 20.656185 4.407826 H 0.0 **** 0.0
2427 H 28.411307 20.660535 3.079898 H 0.0 **** 0.0
2428 O 28.920616 40.975094 16.333326 O 0.0 **** 0.0
2429 H 28.096174 40.940793 15.768363 H 0.0 **** 0.0
2430 H 29.46592 41.773856 16.078993 H 0.0 **** 0.0
2431 O 40.976205 31.075955 13.95335 O 0.0 **** 0.0
2432 H 40.626679 30.259967 14.413849 H 0.0 **** 0.0
2433 H 41.60245 31.560744 14.563972 H 0.0 **** 0.0
2434 O 25.539964 27.898339 36.325346 O 0.0 **** 0.0
2435 H 25.835542 27.135616 35.750064 H 0.0 **** 0.0
2436 H 25.703669 28.760466 35.845764 H 0.0 **** 0.0
2437 O 33.04472 5.329981 7.609874 O 0.0 **** 0.0
2438 H 32.207247 5.390762 7.066728 H 0.0 **** 0.0
2439 H 32.839714 4.906171 8.492156 H 0.0 **** 0.0
2440 O 11.254465 28.912789 25.620081 O 0.0 **** 0.0
2441 H 10.525488 28.300378 25.926034 H 0.0 **** 0.0
2442 H 10.860101 29.790702 25.348402 H 0.0 **** 0.0
2443 O 41.653579 26.378277 18.899279 O 0.0 **** 0.0
2444 H 41.796124 26.511544 17.918471 H 0.0 **** 0.0
2445 H 41.990565 25.475108 19.16534 H 0.0 **** 0.0
2446 O 8.899378 2.645721 15.684504 O 0.0 **** 0.0
2447 H 9.533549 1.872921 15.71039 H 0.0 **** 0.0
2448 H 9.257774 3.350584 15.072308 H 0.0 **** 0.0
2449 O 33.732549 20.449914 1.548087 O 0.0 **** 0.0
2450 H 33.117093 19.667517 1.643657 H 0.0 **** 0.0
2451 H 33.199701 21.296116 1.556886 H 0.0 **** 0.0
2452 O 29.448679 11.701282 19.8649 O 0.0 **** 0.0
2453 H 28.752586 11.033663 19.600695 H 0.0 **** 0.0
2454 H 30.357481 11.30686 19.728621 H 0.0 **** 0.0
2455 O 16.253481 7.958907 13.10277 O 0.0 **** 0.0
2456 H 16.484608 7.819443 14.065679 H 0.0 **** 0.0
2457 H 15.791828 7.145144 12.749599 H 0.0 **** 0.0
2458 O 1.158617 37.481439 21.793878 O 0.0 **** 0.0
2459 H 0.326065 37.452488 22.347124 H 0.0 **** 0.0
2460 H 1.158322 38.310321 21.234398 H 0.0 **** 0.0
2461 O 16.783789 37.069424 40.907943 O 0.0 **** 0.0
2462 H 17.235619 37.96051 40.864594 H 0.0 **** 0.0
2463 H 15.805699 37.182852 40.733197 H 0.0 **** 0.0
2464 O 10.944622 24.455074 10.702462 O 0.0 **** 0.0
2465 H 11.754741 24.907428 11.075487 H 0.0 **** 0.0
2466 H 10.732825 24.838831 9.80361 H 0.0 **** 0.0
2467 O 18.860457 24.131925 24.516841 O 0.0 **** 0.0
2468 H 18.086484 24.745701 24.672751 H 0.0 **** 0.0
2469 H 18.525455 23.25226 24.179165 H 0.0 **** 0.0
2470 O 5.565523 33.497777 40.828684 O 0.0 **** 0.0
2471 H 5.989582 34.080968 40.135773 H 0.0 **** 0.0
2472 H 4.717182 33.112093 40.465878 H 0.0 **** 0.0
2473 O 17.654575 43.508946 9.161271 O 0.0 **** 0.0
2474 H 16.979398 44.030002 8.639065 H 0.0 **** 0.0
2475 H 17.797413 42.619411 8.727234 H 0.0 **** 0.0
2476 O 2.690879 33.623926 12.701198 O 0.0 **** 0.0
2477 H 2.098085 33.009874 13.22235 H 0.0 **** 0.0
2478 H 3.150351 34.254251 13.327009 H 0.0 **** 0.0
2479 O 35.011483 15.763399 29.640949 O 0.0 **** 0.0
2480 H 34.402571 16.50453 29.923816 H 0.0 **** 0.0
2481 H 35.941023 16.117181 29.536757 H 0.0 **** 0.0
2482 O 33.156293 11.23064 23.913854 O 0.0 **** 0.0
2483 H 32.233846 11.61571 23.943436 H 0.0 **** 0.0
2484 H 33.818208 11.963041 23.754108 H 0.0 **** 0.0
2485 O 37.260491 2.046856 1.763186 O 0.0 **** 0.0
2486 H 37.731386 1.968974 2.641966 H 0.0 **** 0.0
2487 H 37.327715 2.987811 1.431301 H 0.0 **** 0.0
2488 O 0.921493 29.803683 23.011975 O 0.0 **** 0.0
2489 H 0.09246 30.146235 23.454045 H 0.0 **** 0.0
2490 H 0.717724 29.561965 22.063231 H 0.0 **** 0.0
2491 O 43.348825 2.491373 24.303703 O 0.0 **** 0.0
2492 H 43.951324 3.140222 23.838887 H 0.0 **** 0.0
2493 H 42.673423 2.992494 24.844787 H 0.0 **** 0.0
2494 O 2.337751 9.267489 32.64065 O 0.0 **** 0.0
2495 H 1.7601 9.871956 32.092012 H 0.0 **** 0.0
2496 H 2.06804 9.330537 33.601558 H 0.0 **** 0.0
2497 O 36.521358 9.904542 26.545045 O 0.0 **** 0.0
2498 H 36.2499 10.321681 27.412436 H 0.0 **** 0.0
2499 H 36.013724 9.05338 26.411276 H 0.0 **** 0.0
2500 O 29.574323 32.5844 31.596012 O 0.0 **** 0.0
2501 H 30.357806 32.017051 31.849653 H 0.0 **** 0.0
2502 H 29.367569 33.219182 32.34057 H 0.0 **** 0.0
2503 O 42.009741 28.856535 12.808617 O 0.0 **** 0.0
2504 H 41.027714 28.690663 12.899023 H 0.0 **** 0.0
2505 H 42.164945 29.813753 12.564265 H 0.0 **** 0.0
2506 O 36.781678 39.562059 47.854485 O 0.0 **** 0.0
2507 H 37.633539 39.055494 47.987861 H 0.0 **** 0.0
2508 H 36.003908 38.953018 48.01007 H 0.0 **** 0.0
2509 O 5.233109 21.153368 26.126961 O 0.0 **** 0.0
2510 H 6.191424 20.887956 26.233037 H 0.0 **** 0.0
2511 H 4.646935 20.460387 26.546772 H 0.0 **** 0.0
2512 O 26.93247 45.846388 45.828741 O 0.0 **** 0.0
2513 H 26.107635 46.392096 45.976772 H 0.0 **** 0.0
2514 H 26.697802 44.874565 45.852295 H 0.0 **** 0.0
2515 O 23.863043 44.242348 14.489197 O 0.0 **** 0.0
2516 H 23.081878 44.850763 14.629464 H 0.0 **** 0.0
2517 H 24.712056 44.756848 14.609738 H 0.0 **** 0.0
2518 O 48.002207 45.572614 40.856987 O 0.0 **** 0.0
2519 H 47.31194 44.856333 40.959639 H 0.0 **** 0.0
2520 H 47.598496 46.459287 41.082579 H 0.0 **** 0.0
2521 O 17.527838 33.166527 41.518494 O 0.0 **** 0.0
2522 H 16.775785 32.772694 42.047053 H 0.0 **** 0.0
2523 H 18.225283 33.518682 42.14269 H 0.0 **** 0.0
2524 O 33.056283 19.022002 9.521495 O 0.0 **** 0.0
2525 H 33.734284 19.010549 8.786481 H 0.0 **** 0.0
2526 H 32.93607 19.959052 9.849442 H 0.0 **** 0.0
2527 O 42.477458 14.405393 8.319667 O 0.0 **** 0.0
2528 H 42.26243 14.200816 9.27464 H 0.0 **** 0.0
2529 H 41.754823 14.04381 7.730499 H 0.0 **** 0.0
2530 O 3.26012 27.829361 46.02582 O 0.0 **** 0.0
2531 H 2.943708 26.888777 45.902337 H 0.0 **** 0.0
2532 H 2.689468 28.446755 45.4843 H 0.0 **** 0.0
2533 O 1.699004 40.788356 14.078863 O 0.0 **** 0.0
2534 H 2.545371 41.053041 13.616622 H 0.0 **** 0.0
2535 H 1.606894 41.3076 14.928548 H 0.0 **** 0.0
2536 O 13.140478 0.547362 38.813718 O 0.0 **** 0.0
2537 H 12.378222 -0.001538 39.156846 H 0.0 **** 0.0
2538 H 13.022826 1.497833 39.101515 H 0.0 **** 0.0
2539 O 41.185835 4.129466 22.66173 O 0.0 **** 0.0
2540 H 42.111338 3.76456 22.763468 H 0.0 **** 0.0
2541 H 41.032303 4.843778 23.344554 H 0.0 **** 0.0
2542 O 3.485969 32.845119 7.239185 O 0.0 **** 0.0
2543 H 3.890586 33.580823 6.695965 H 0.0 **** 0.0
2544 H 3.301145 32.058613 6.649854 H 0.0 **** 0.0
2545 O 25.099306 26.977447 29.93651 O 0.0 **** 0.0
2546 H 24.134599 26.998836 30.199089 H 0.0 **** 0.0
2547 H 25.662685 26.828525 30.749215 H 0.0 **** 0.0
2548 O 43.922943 6.976778 30.291403 O 0.0 **** 0.0
2549 H 44.469426 6.64931 29.520569 H 0.0 **** 0.0
2550 H 44.212163 6.509922 31.127142 H 0.0 **** 0.0
2551 O 41.368559 27.102311 15.321569 O 0.0 **** 0.0
2552 H 41.113295 26.256115 15.789389 H 0.0 **** 0.0
2553 H 40.558848 27.503747 14.893459 H 0.0 **** 0.0
2554 O 40.379505 4.259532 38.57745 O 0.0 **** 0.0
2555 H 40.108221 5.133642 38.980438 H 0.0 **** 0.0
2556 H 40.747682 3.663513 39.291081 H 0.0 **** 0.0
2557 O 13.547047 24.966301 33.923762 O 0.0 **** 0.0
2558 H 12.634552 25.375073 33.941701 H 0.0 **** 0.0
2559 H 14.033552 25.200048 34.765628 H 0.0 **** 0.0
2560 O 40.872465 33.373653 8.892075 O 0.0 **** 0.0
2561 H 41.318879 32.722707 8.278034 H 0.0 **** 0.0
2562 H 40.408623 34.076428 8.352612 H 0.0 **** 0.0
2563 O 4.129454 25.695746 32.702604 O 0.0 **** 0.0
2564 H 4.80208 26.348759 32.354449 H 0.0 **** 0.0
2565 H 3.8888 25.047893 31.979806 H 0.0 **** 0.0
2566 O 32.855876 13.732332 0.031646 O 0.0 **** 0.0
2567 H 33.453296 14.159436 0.71042 H 0.0 **** 0.0
2568 H 32.101932 13.267974 0.496409 H 0.0 **** 0.0
2569 O 25.221953 29.192506 28.704497 O 0.0 **** 0.0
2570 H 25.792536 28.466175 28.321168 H 0.0 **** 0.0
2571 H 24.336265 28.813789 28.973186 H 0.0 **** 0.0
2572 O 10.561388 15.146571 37.324602 O 0.0 **** 0.0
2573 H 10.749124 14.535782 38.093858 H 0.0 **** 0.0
2574 H 11.069147 15.99968 37.4448 H 0.0 **** 0.0
2575 O 27.938265 21.227326 19.482304 O 0.0 **** 0.0
2576 H 27.719058 20.368769 19.018739 H 0.0 **** 0.0
2577 H 27.102616 21.762877 19.604529 H 0.0 **** 0.0
2578 O 43.820242 30.403244 21.744966 O 0.0 **** 0.0
2579 H 43.825213 29.403247 21.738391 H 0.0 **** 0.0
2580 H 43.918885 30.730839 22.684655 H 0.0 **** 0.0
2581 O 14.071329 12.026815 26.091135 O 0.0 **** 0.0
2582 H 13.444194 12.705614 26.47323 H 0.0 **** 0.0
2583 H 14.119773 11.236643 26.702154 H 0.0 **** 0.0
2584 O 28.928148 2.225888 11.874317 O 0.0 **** 0.0
2585 H 28.598746 1.389433 12.31238 H 0.0 **** 0.0
2586 H 28.154233 2.724763 11.484134 H 0.0 **** 0.0
2587 O 18.098231 37.221054 5.510863 O 0.0 **** 0.0
2588 H 18.777987 36.54592 5.797549 H 0.0 **** 0.0
2589 H 17.8539 37.799273 6.28934 H 0.0 **** 0.0
2590 O 8.542413 30.27421 11.461106 O 0.0 **** 0.0
2591 H 7.708853 29.760957 11.256626 H 0.0 **** 0.0
2592 H 8.557943 30.511338 12.432492 H 0.0 **** 0.0
2593 O 24.357796 2.586218 37.847555 O 0.0 **** 0.0
2594 H 24.835686 2.078887 37.130408 H 0.0 **** 0.0
2595 H 23.55554 3.038447 37.457763 H 0.0 **** 0.0
2596 O 44.259229 21.838291 7.505713 O 0.0 **** 0.0
2597 H 43.311212 21.594609 7.300904 H 0.0 **** 0.0
2598 H 44.294509 22.774288 7.856038 H 0.0 **** 0.0
2599 O 7.311268 38.987985 22.155964 O 0.0 **** 0.0
2600 H 6.693923 38.883939 21.376141 H 0.0 **** 0.0
2601 H 7.339797 38.133529 22.674764 H 0.0 **** 0.0
2602 O 4.4837 33.889313 44.084658 O 0.0 **** 0.0
2603 H 5.143875 33.177298 43.845356 H 0.0 **** 0.0
2604 H 3.906233 33.569498 44.835866 H 0.0 **** 0.0
2605 O 3.652751 30.964982 4.088484 O 0.0 **** 0.0
2606 H 3.090604 30.757737 4.889173 H 0.0 **** 0.0
2607 H 3.375658 31.846379 3.705834 H 0.0 **** 0.0
2608 O 44.236551 34.999711 43.599963 O 0.0 **** 0.0
2609 H 44.574712 35.736633 43.014594 H 0.0 **** 0.0
2610 H 44.51941 35.16779 44.544316 H 0.0 **** 0.0
2611 O 8.039436 9.374604 34.596891 O 0.0 **** 0.0
2612 H 8.826814 9.532438 34.000915 H 0.0 **** 0.0
2613 H 7.911451 10.164796 35.19629 H 0.0 **** 0.0
2614 O 26.238886 42.70905 2.317188 O 0.0 **** 0.0
2615 H 26.515554 43.669925 2.301794 H 0.0 **** 0.0
2616 H 27.052324 42.12767 2.297732 H 0.0 **** 0.0
2617 O 30.346826 0.950194 42.068651 O 0.0 **** 0.0
2618 H 29.604074 0.622393 41.48476 H 0.0 **** 0.0
2619 H 30.203255 0.626402 43.003856 H 0.0 **** 0.0
2620 O 19.457174 48.001101 32.471666 O 0.0 **** 0.0
2621 H 18.737239 47.747253 33.117668 H 0.0 **** 0.0
2622 H 20.01266 47.197212 32.258921 H 0.0 **** 0.0
2623 O 23.391684 44.638307 35.445333 O 0.0 **** 0.0
2624 H 22.693069 44.971972 36.078315 H 0.0 **** 0.0
2625 H 23.022044 43.877462 34.911905 H 0.0 **** 0.0
2626 O 44.121114 9.494574 28.227126 O 0.0 **** 0.0
2627 H 43.17618 9.364576 27.926687 H 0.0 **** 0.0
2628 H 44.392834 8.730585 28.812405 H 0.0 **** 0.0
2629 O 4.66594 45.432744 13.476668 O 0.0 **** 0.0
2630 H 5.020975 46.285978 13.858774 H 0.0 **** 0.0
2631 H 5.418856 44.904907 13.083518 H 0.0 **** 0.0
2632 O 37.368033 6.146246 44.577378 O 0.0 **** 0.0
2633 H 37.182187 5.995665 43.606373 H 0.0 **** 0.0
2634 H 36.515525 6.073481 45.095062 H 0.0 **** 0.0
2635 O 16.307697 46.866395 33.80557 O 0.0 **** 0.0
2636 H 16.592452 45.937751 34.043474 H 0.0 **** 0.0
2637 H 15.832076 46.854104 32.925969 H 0.0 **** 0.0
2638 O 34.698119 43.044053 30.785091 O 0.0 **** 0.0
2639 H 34.719917 42.871786 31.769932 H 0.0 **** 0.0
2640 H 35.538603 43.510763 30.509713 H 0.0 **** 0.0
2641 O 13.792797 6.678058 23.092305 O 0.0 **** 0.0
2642 H 13.139113 7.064511 23.743008 H 0.0 **** 0.0
2643 H 14.47346 6.136378 23.585604 H 0.0 **** 0.0
2644 O 12.173612 3.377081 21.199961 O 0.0 **** 0.0
2645 H 12.241363 3.845912 20.31924 H 0.0 **** 0.0
2646 H 11.259254 3.514191 21.581029 H 0.0 **** 0.0
2647 O 3.119155 4.909275 10.53446 O 0.0 **** 0.0
2648 H 3.757894 5.433697 9.971383 H 0.0 **** 0.0
2649 H 3.537705 4.037511 10.789227 H 0.0 **** 0.0
2650 O 46.213122 37.940141 1.007189 O 0.0 **** 0.0
2651 H 46.76862 37.683907 0.216096 H 0.0 **** 0.0
2652 H 46.742755 38.541275 1.605678 H 0.0 **** 0.0
2653 O 41.722396 0.822941 45.129064 O 0.0 **** 0.0
2654 H 42.102093 1.741637 45.238105 H 0.0 **** 0.0
2655 H 41.114507 0.620278 45.896828 H 0.0 **** 0.0
2656 O 11.729419 42.583291 27.247227 O 0.0 **** 0.0
2657 H 12.217759 42.416454 28.10382 H 0.0 **** 0.0
2658 H 11.249208 41.751118 26.969834 H 0.0 **** 0.0
2659 O 28.699233 8.974472 7.401663 O 0.0 **** 0.0
2660 H 28.876665 8.035203 7.107803 H 0.0 **** 0.0
2661 H 27.716161 9.154514 7.366766 H 0.0 **** 0.0
2662 O 6.117952 33.159042 30.132349 O 0.0 **** 0.0
2663 H 6.871216 33.799942 29.984349 H 0.0 **** 0.0
2664 H 5.347743 33.640799 30.550381 H 0.0 **** 0.0
2665 O 24.818596 13.988662 16.231942 O 0.0 **** 0.0
2666 H 25.228573 14.832906 16.577244 H 0.0 **** 0.0
2667 H 25.504516 13.469281 15.722218 H 0.0 **** 0.0
2668 O 7.041602 33.116656 32.240571 O 0.0 **** 0.0
2669 H 7.892981 32.594863 32.294875 H 0.0 **** 0.0
2670 H 7.252467 34.087889 32.129643 H 0.0 **** 0.0
2671 O 11.107158 9.311689 38.546312 O 0.0 **** 0.0
2672 H 10.376262 8.997238 39.152097 H 0.0 **** 0.0
2673 H 11.072831 8.798806 37.688503 H 0.0 **** 0.0
2674 O 0.042423 32.932135 10.749707 O 0.0 **** 0.0
2675 H 0.961319 33.158437 10.426472 H 0.0 **** 0.0
2676 H -2.4e-05 31.95975 10.979335 H 0.0 **** 0.0
2677 O 45.196265 31.269477 30.792637 O 0.0 **** 0.0
2678 H 44.687138 31.935767 31.33753 H 0.0 **** 0.0
2679 H 46.157285 31.542047 30.745634 H 0.0 **** 0.0
2680 O 41.347729 1.620268 38.745911 O 0.0 **** 0.0
2681 H 40.417075 1.255723 38.778367 H 0.0 **** 0.0
2682 H 42.002728 0.86535 38.77965 H 0.0 **** 0.0
2683 O 30.257002 24.973315 22.268785 O 0.0 **** 0.0
2684 H 30.415816 24.098577 21.810881 H 0.0 **** 0.0
2685 H 31.125014 25.332275 22.611953 H 0.0 **** 0.0
2686 O 7.435364 38.917898 45.280001 O 0.0 **** 0.0
2687 H 8.037985 38.370391 45.860645 H 0.0 **** 0.0
2688 H 6.527738 38.498915 45.252924 H 0.0 **** 0.0
2689 O 37.195821 12.935197 28.982942 O 0.0 **** 0.0
2690 H 36.778663 12.196166 28.453908 H 0.0 **** 0.0
2691 H 38.104534 12.652985 29.290611 H 0.0 **** 0.0
2692 O 18.204501 42.724853 33.698295 O 0.0 **** 0.0
2693 H 18.569788 41.796316 33.764978 H 0.0 **** 0.0
2694 H 17.20589 42.688158 33.659674 H 0.0 **** 0.0
2695 O 27.708889 34.305148 30.192966 O 0.0 **** 0.0
2696 H 28.692745 34.127 30.174185 H 0.0 **** 0.0
2697 H 27.521994 35.189014 29.764115 H 0.0 **** 0.0
2698 O 11.548864 31.198887 27.383204 O 0.0 **** 0.0
2699 H 11.895737 30.274245 27.225787 H 0.0 **** 0.0
2700 H 12.317589 31.829871 27.488004 H 0.0 **** 0.0
2701 O 0.194768 17.1678 30.998977 O 0.0 **** 0.0
2702 H 1.147506 17.390484 30.792179 H 0.0 **** 0.0
2703 H 0.080971 16.174421 31.016637 H 0.0 **** 0.0
2704 O 35.621443 40.731526 0.433427 O 0.0 **** 0.0
2705 H 36.116266 39.963487 0.026821 H 0.0 **** 0.0
2706 H 35.865054 40.810651 1.400099 H 0.0 **** 0.0
2707 O 41.328504 20.024804 6.509794 O 0.0 **** 0.0
2708 H 41.5663 19.237877 5.940354 H 0.0 **** 0.0
2709 H 40.601381 20.549233 6.066703 H 0.0 **** 0.0
2710 O 27.841158 4.188554 9.872535 O 0.0 **** 0.0
2711 H 27.097364 4.85158 9.787498 H 0.0 **** 0.0
2712 H 28.667323 4.653519 10.190846 H 0.0 **** 0.0
2713 O 18.951203 12.926299 22.514747 O 0.0 **** 0.0
2714 H 19.694764 12.282734 22.333079 H 0.0 **** 0.0
2715 H 19.333787 13.810701 22.782191 H 0.0 **** 0.0
2716 O 9.970842 30.39856 47.432781 O 0.0 **** 0.0
2717 H 10.87266 30.773746 47.218252 H 0.0 **** 0.0
2718 H 9.820537 29.56634 46.899039 H 0.0 **** 0.0
2719 O 18.064057 40.763697 37.460159 O 0.0 **** 0.0
2720 H 17.39795 41.509583 37.45599 H 0.0 **** 0.0
2721 H 17.582874 39.887265 37.480026 H 0.0 **** 0.0
2722 O 27.872112 5.886033 32.50561 O 0.0 **** 0.0
2723 H 28.249125 6.809488 32.433819 H 0.0 **** 0.0
2724 H 26.873234 5.933495 32.512872 H 0.0 **** 0.0
2725 O 22.308701 45.071408 32.302926 O 0.0 **** 0.0
2726 H 21.681446 45.799824 32.578651 H 0.0 **** 0.0
2727 H 21.924881 44.185153 32.562344 H 0.0 **** 0.0
2728 O 27.319079 44.178597 6.551207 O 0.0 **** 0.0
2729 H 26.428004 44.282388 6.993109 H 0.0 **** 0.0
2730 H 27.994436 44.742687 7.026347 H 0.0 **** 0.0
2731 O 0.07726 29.772987 10.755639 O 0.0 **** 0.0
2732 H 0.00014 28.781617 10.861948 H 0.0 **** 0.0
2733 H 1.031276 30.016138 10.580157 H 0.0 **** 0.0
2734 O 45.518293 8.5261 40.621906 O 0.0 **** 0.0
2735 H 44.766893 8.041248 41.069544 H 0.0 **** 0.0
2736 H 45.15288 9.294018 40.095752 H 0.0 **** 0.0
2737 O 38.639613 41.748131 40.130291 O 0.0 **** 0.0
2738 H 39.34039 41.074459 40.365112 H 0.0 **** 0.0
2739 H 37.74314 41.305204 40.115632 H 0.0 **** 0.0
2740 O 15.659841 10.552953 37.778838 O 0.0 **** 0.0
2741 H 14.831145 11.101443 37.890579 H 0.0 **** 0.0
2742 H 15.469701 9.781848 37.171132 H 0.0 **** 0.0
2743 O 19.951993 37.958184 2.961497 O 0.0 **** 0.0
2744 H 20.339817 37.036515 2.974927 H 0.0 **** 0.0
2745 H 20.159961 38.419866 3.823856 H 0.0 **** 0.0
2746 O 25.641251 1.339177 34.158464 O 0.0 **** 0.0
2747 H 25.630054 0.380905 33.872715 H 0.0 **** 0.0
2748 H 24.936648 1.843944 33.659657 H 0.0 **** 0.0
2749 O 38.150079 31.612263 3.365456 O 0.0 **** 0.0
2750 H 37.177265 31.382877 3.398276 H 0.0 **** 0.0
2751 H 38.256014 32.58994 3.183827 H 0.0 **** 0.0
2752 O 23.715319 8.983036 2.85158 O 0.0 **** 0.0
2753 H 23.335266 8.423246 2.115198 H 0.0 **** 0.0
2754 H 23.464099 8.587062 3.734844 H 0.0 **** 0.0
2755 O 47.009561 4.658106 4.92685 O 0.0 **** 0.0
2756 H 46.804726 4.551513 3.953843 H 0.0 **** 0.0
2757 H 48.000611 4.685495 5.057743 H 0.0 **** 0.0
2758 O 7.456816 25.665611 3.619802 O 0.0 **** 0.0
2759 H 8.352335 25.740151 3.180994 H 0.0 **** 0.0
2760 H 6.739999 25.709351 2.923869 H 0.0 **** 0.0
2761 O 0.058262 16.354218 26.032897 O 0.0 **** 0.0
2762 H 0.000828 17.194597 25.493892 H 0.0 **** 0.0
2763 H 0.376629 16.571271 26.955715 H 0.0 **** 0.0
2764 O 27.314822 20.782005 29.012415 O 0.0 **** 0.0
2765 H 26.390158 20.402008 29.038135 H 0.0 **** 0.0
2766 H 27.345671 21.620799 29.556047 H 0.0 **** 0.0
2767 O 29.82733 18.898028 5.391004 O 0.0 **** 0.0
2768 H 30.478118 19.527122 5.816185 H 0.0 **** 0.0
2769 H 30.239984 17.989946 5.319122 H 0.0 **** 0.0
2770 O 13.86379 21.391931 13.022515 O 0.0 **** 0.0
2771 H 14.054139 21.284591 12.046652 H 0.0 **** 0.0
2772 H 13.094887 20.805998 13.27851 H 0.0 **** 0.0
2773 O 41.451787 39.480605 3.527532 O 0.0 **** 0.0
2774 H 41.085212 38.889622 2.808905 H 0.0 **** 0.0
2775 H 42.323219 39.111316 3.850481 H 0.0 **** 0.0
2776 O 11.132014 19.197314 13.444069 O 0.0 **** 0.0
2777 H 11.062295 19.991269 12.840052 H 0.0 **** 0.0
2778 H 11.557729 19.471077 14.306556 H 0.0 **** 0.0
2779 O 11.087734 22.453261 33.588213 O 0.0 **** 0.0
2780 H 10.517589 21.6753 33.324063 H 0.0 **** 0.0
2781 H 11.996304 22.353565 33.182475 H 0.0 **** 0.0
2782 O 19.072529 5.087904 38.418038 O 0.0 **** 0.0
2783 H 19.709751 5.421005 37.723017 H 0.0 **** 0.0
2784 H 18.332494 4.580877 37.976071 H 0.0 **** 0.0
2785 O 2.298396 29.207605 18.006802 O 0.0 **** 0.0
2786 H 1.991584 28.294741 17.737343 H 0.0 **** 0.0
2787 H 1.554144 29.684919 18.474052 H 0.0 **** 0.0
2788 O 24.703617 25.191885 36.667332 O 0.0 **** 0.0
2789 H 25.505024 25.331869 37.248895 H 0.0 **** 0.0
2790 H 23.966159 25.798448 36.964485 H 0.0 **** 0.0
2791 O 41.79745 27.606768 38.262432 O 0.0 **** 0.0
2792 H 41.178067 28.377822 38.410426 H 0.0 **** 0.0
2793 H 42.649467 27.763034 38.762141 H 0.0 **** 0.0
2794 O 5.498269 18.808402 4.315835 O 0.0 **** 0.0
2795 H 6.129228 18.054626 4.132053 H 0.0 **** 0.0
2796 H 4.742684 18.47989 4.882609 H 0.0 **** 0.0
2797 O 5.781947 41.530624 37.856001 O 0.0 **** 0.0
2798 H 6.389557 42.304764 37.678292 H 0.0 **** 0.0
2799 H 5.919935 40.830884 37.155011 H 0.0 **** 0.0
2800 O 40.0404 35.723319 31.96608 O 0.0 **** 0.0
2801 H 39.113459 35.428757 32.198624 H 0.0 **** 0.0
2802 H 40.079421 35.96689 30.99695 H 0.0 **** 0.0
2803 O 36.617258 11.76869 7.170588 O 0.0 **** 0.0
2804 H 37.548924 11.432602 7.308816 H 0.0 **** 0.0
2805 H 36.194937 11.954531 8.057815 H 0.0 **** 0.0
2806 O 10.564545 41.980476 0.00429 O 0.0 **** 0.0
2807 H 10.784732 41.45684 0.827325 H 0.0 **** 0.0
2808 H 11.090302 42.831136 -9.6e-05 H 0.0 **** 0.0
2809 O 5.034523 5.476708 23.870312 O 0.0 **** 0.0
2810 H 5.550417 5.188426 23.063584 H 0.0 **** 0.0
2811 H 4.713653 4.669947 24.36654 H 0.0 **** 0.0
2812 O 27.08997 16.70522 24.889951 O 0.0 **** 0.0
2813 H 27.666685 17.509273 25.034732 H 0.0 **** 0.0
2814 H 27.659134 15.933676 24.605634 H 0.0 **** 0.0
2815 O 33.100513 36.374081 33.091558 O 0.0 **** 0.0
2816 H 32.421302 36.969852 33.520268 H 0.0 **** 0.0
2817 H 33.852627 36.212352 33.730488 H 0.0 **** 0.0
2818 O 21.230541 13.703827 1.431275 O 0.0 **** 0.0
2819 H 21.5559 13.79445 0.490003 H 0.0 **** 0.0
2820 H 21.761899 14.306173 2.027011 H 0.0 **** 0.0
2821 O 39.680048 13.441462 8.542519 O 0.0 **** 0.0
2822 H 39.161752 12.58759 8.59083 H 0.0 **** 0.0
2823 H 39.31443 14.012102 7.807157 H 0.0 **** 0.0
2824 O 35.835032 30.662778 14.076331 O 0.0 **** 0.0
2825 H 36.336916 29.798489 14.041973 H 0.0 **** 0.0
2826 H 36.457739 31.399509 14.340007 H 0.0 **** 0.0
2827 O 28.443634 9.286543 35.120475 O 0.0 **** 0.0
2828 H 28.380692 9.717865 36.02051 H 0.0 **** 0.0
2829 H 29.405105 9.196158 34.860731 H 0.0 **** 0.0
2830 O 12.450142 28.90586 35.696349 O 0.0 **** 0.0
2831 H 12.742422 29.710674 35.179717 H 0.0 **** 0.0
2832 H 11.544492 28.619713 35.383328 H 0.0 **** 0.0
2833 O 15.309746 33.463209 12.869538 O 0.0 **** 0.0
2834 H 14.314447 33.508081 12.955735 H 0.0 **** 0.0
2835 H 15.691271 34.38574 12.928166 H 0.0 **** 0.0
2836 O 25.711143 30.615198 15.375512 O 0.0 **** 0.0
2837 H 24.940889 30.563142 14.739853 H 0.0 **** 0.0
2838 H 25.385025 30.921388 16.269915 H 0.0 **** 0.0
2839 O 37.023464 6.835159 26.758011 O 0.0 **** 0.0
2840 H 37.160839 6.932505 27.743767 H 0.0 **** 0.0
2841 H 37.050449 5.866278 26.511832 H 0.0 **** 0.0
2842 O 45.474258 16.016044 25.06194 O 0.0 **** 0.0
2843 H 45.449485 16.564818 24.226299 H 0.0 **** 0.0
2844 H 46.392386 15.639738 25.186431 H 0.0 **** 0.0
2845 O 6.545704 34.803082 47.996498 O 0.0 **** 0.0
2846 H 6.112179 33.954099 47.694262 H 0.0 **** 0.0
2847 H 7.538829 34.685971 48.003655 H 0.0 **** 0.0
2848 O 34.331244 26.231607 30.643565 O 0.0 **** 0.0
2849 H 33.521275 25.659372 30.514877 H 0.0 **** 0.0
2850 H 34.783962 25.980796 31.499254 H 0.0 **** 0.0
2851 O 3.808203 7.20941 12.402664 O 0.0 **** 0.0
2852 H 3.389176 6.933905 11.537461 H 0.0 **** 0.0
2853 H 4.787099 7.36109 12.265482 H 0.0 **** 0.0
2854 O 36.160066 31.766825 36.323429 O 0.0 **** 0.0
2855 H 36.315706 30.779094 36.338512 H 0.0 **** 0.0
2856 H 35.176913 31.949486 36.333868 H 0.0 **** 0.0
2857 O 13.757637 45.841091 30.79947 O 0.0 **** 0.0
2858 H 12.822104 45.536221 30.978066 H 0.0 **** 0.0
2859 H 14.189112 46.113981 31.659367 H 0.0 **** 0.0
2860 O 42.426507 6.64102 22.931757 O 0.0 **** 0.0
2861 H 42.769687 7.464422 22.479761 H 0.0 **** 0.0
2862 H 42.793205 5.831605 22.473016 H 0.0 **** 0.0
2863 O 19.254179 10.628987 24.510117 O 0.0 **** 0.0
2864 H 18.486976 10.715313 25.145735 H 0.0 **** 0.0
2865 H 19.309462 9.686454 24.180513 H 0.0 **** 0.0
2866 O 20.485579 22.629601 25.8634 O 0.0 **** 0.0
2867 H 21.32707 22.117098 26.034566 H 0.0 **** 0.0
2868 H 20.699829 23.602494 25.776 H 0.0 **** 0.0
2869 O 31.326936 34.175619 30.111092 O 0.0 **** 0.0
2870 H 30.728143 34.925445 30.392643 H 0.0 **** 0.0
2871 H 30.814349 33.537574 29.536448 H 0.0 **** 0.0
2872 O 20.167884 34.496781 42.488445 O 0.0 **** 0.0
2873 H 20.578807 35.402223 42.381773 H 0.0 **** 0.0
2874 H 20.809707 33.799737 42.168669 H 0.0 **** 0.0
2875 O 41.745715 46.666903 35.960783 O 0.0 **** 0.0
2876 H 42.28122 45.825433 36.033077 H 0.0 **** 0.0
2877 H 40.774666 46.454406 36.070207 H 0.0 **** 0.0
2878 O 27.796458 4.186151 3.399657 O 0.0 **** 0.0
2879 H 28.330676 5.031506 3.406628 H 0.0 **** 0.0
2880 H 27.770053 3.816246 2.470928 H 0.0 **** 0.0
2881 O 10.074015 23.631077 31.120681 O 0.0 **** 0.0
2882 H 10.956848 23.373563 31.513562 H 0.0 **** 0.0
2883 H 10.162967 24.507159 30.646728 H 0.0 **** 0.0
2884 O 30.199904 36.483432 38.0293 O 0.0 **** 0.0
2885 H 29.207745 36.469953 38.1538 H 0.0 **** 0.0
2886 H 30.604635 35.694846 38.49232 H 0.0 **** 0.0
2887 O 18.96128 21.103937 9.068194 O 0.0 **** 0.0
2888 H 19.126759 21.803024 9.763865 H 0.0 **** 0.0
2889 H 19.193263 21.469379 8.166696 H 0.0 **** 0.0
2890 O 31.598321 23.328018 19.844156 O 0.0 **** 0.0
2891 H 32.309045 23.921413 19.466243 H 0.0 **** 0.0
2892 H 31.229293 22.746562 19.119043 H 0.0 **** 0.0
2893 O 39.848048 10.540639 47.910269 O 0.0 **** 0.0
2894 H 39.284867 11.347228 47.73053 H 0.0 **** 0.0
2895 H 40.767758 10.688546 47.546511 H 0.0 **** 0.0
2896 O 29.989182 39.634418 36.06356 O 0.0 **** 0.0
2897 H 30.897234 39.98585 35.835526 H 0.0 **** 0.0
2898 H 30.026741 38.637941 36.138959 H 0.0 **** 0.0
2899 O 3.860872 17.689786 17.449655 O 0.0 **** 0.0
2900 H 3.333649 18.515735 17.249892 H 0.0 **** 0.0
2901 H 3.245659 16.972946 17.777859 H 0.0 **** 0.0
2902 O 9.575631 12.848027 45.82013 O 0.0 **** 0.0
2903 H 8.65061 12.473353 45.75673 H 0.0 **** 0.0
2904 H 9.556298 13.822876 45.597962 H 0.0 **** 0.0
2905 O 3.375295 18.281946 6.973696 O 0.0 **** 0.0
2906 H 4.325913 18.050934 7.181113 H 0.0 **** 0.0
2907 H 3.345807 19.133991 6.450998 H 0.0 **** 0.0
2908 O 32.200827 37.67732 6.487907 O 0.0 **** 0.0
2909 H 32.798343 38.475008 6.405861 H 0.0 **** 0.0
2910 H 31.245665 37.972611 6.464843 H 0.0 **** 0.0
2911 O 20.021379 33.798349 13.899872 O 0.0 **** 0.0
2912 H 19.611097 34.305763 14.657673 H 0.0 **** 0.0
2913 H 20.964101 33.558046 14.131374 H 0.0 **** 0.0
2914 O 30.693551 34.97586 9.237602 O 0.0 **** 0.0
2915 H 29.713919 34.779485 9.194932 H 0.0 **** 0.0
2916 H 30.978668 35.042931 10.193779 H 0.0 **** 0.0
2917 O 22.902087 30.478662 9.328272 O 0.0 **** 0.0
2918 H 23.738153 30.252826 9.828326 H 0.0 **** 0.0
2919 H 22.271316 29.703588 9.366357 H 0.0 **** 0.0
2920 O 18.864492 26.678341 32.857205 O 0.0 **** 0.0
2921 H 17.9664 26.593731 33.28887 H 0.0 **** 0.0
2922 H 19.520065 26.092984 33.334326 H 0.0 **** 0.0
2923 O 30.239994 0.890293 34.703459 O 0.0 **** 0.0
2924 H 30.605057 1.648998 35.24305 H 0.0 **** 0.0
2925 H 30.960965 0.215075 34.547432 H 0.0 **** 0.0
2926 O 46.973701 0.089947 11.335838 O 0.0 **** 0.0
2927 H 47.125544 0.963011 10.872411 H 0.0 **** 0.0
2928 H 46.001687 -0.009744 11.54871 H 0.0 **** 0.0
2929 O 24.151714 31.417787 27.356098 O 0.0 **** 0.0
2930 H 23.783585 32.347276 27.331717 H 0.0 **** 0.0
2931 H 25.120671 31.449419 27.601422 H 0.0 **** 0.0
2932 O 46.462434 10.520572 16.168538 O 0.0 **** 0.0
2933 H 47.365856 10.34542 15.777112 H 0.0 **** 0.0
2934 H 46.21977 9.777603 16.792377 H 0.0 **** 0.0
2935 O 44.085305 1.849826 30.552706 O 0.0 **** 0.0
2936 H 44.18454 2.844921 30.552134 H 0.0 **** 0.0
2937 H 43.154029 1.607929 30.82524 H 0.0 **** 0.0
2938 O 2.643804 21.761839 45.824262 O 0.0 **** 0.0
2939 H 2.463149 22.057675 46.762297 H 0.0 **** 0.0
2940 H 2.025189 22.238383 45.199535 H 0.0 **** 0.0
2941 O 19.928172 1.007193 23.869491 O 0.0 **** 0.0
2942 H 19.144679 1.091924 23.253844 H 0.0 **** 0.0
2943 H 20.06481 0.04482 24.104502 H 0.0 **** 0.0
2944 O 46.172569 46.963772 29.518895 O 0.0 **** 0.0
2945 H 45.452347 46.298084 29.323439 H 0.0 **** 0.0
2946 H 46.805469 47.006669 28.74581 H 0.0 **** 0.0
2947 O 46.773288 38.737489 33.156575 O 0.0 **** 0.0
2948 H 46.544853 39.563199 32.640741 H 0.0 **** 0.0
2949 H 47.730642 38.497809 32.995052 H 0.0 **** 0.0
2950 O 19.069358 13.222325 2.833395 O 0.0 **** 0.0
2951 H 18.876135 14.023251 3.400181 H 0.0 **** 0.0
2952 H 18.304583 13.063639 2.208894 H 0.0 **** 0.0
2953 O 21.854041 34.375475 26.242564 O 0.0 **** 0.0
2954 H 22.405628 34.715303 25.480769 H 0.0 **** 0.0
2955 H 22.022204 33.39738 26.365502 H 0.0 **** 0.0
2956 O 14.328849 19.09052 24.091869 O 0.0 **** 0.0
2957 H 14.157989 20.004525 23.723815 H 0.0 **** 0.0
2958 H 15.27284 19.033244 24.41693 H 0.0 **** 0.0
2959 O 14.527451 20.432332 15.734791 O 0.0 **** 0.0
2960 H 14.585997 20.628607 16.713622 H 0.0 **** 0.0
2961 H 13.915197 21.091882 15.298669 H 0.0 **** 0.0
2962 O 40.975099 45.183674 41.027853 O 0.0 **** 0.0
2963 H 41.682894 45.787384 40.660942 H 0.0 **** 0.0
2964 H 40.094667 45.41084 40.611561 H 0.0 **** 0.0
2965 O 25.611501 4.584727 47.059909 O 0.0 **** 0.0
2966 H 26.337357 4.019946 47.452614 H 0.0 **** 0.0
2967 H 24.759989 4.061074 47.03201 H 0.0 **** 0.0
2968 O 32.257723 18.016338 29.403941 O 0.0 **** 0.0
2969 H 32.979194 18.70879 29.41117 H 0.0 **** 0.0
2970 H 32.400269 17.378609 30.160939 H 0.0 **** 0.0
2971 O 39.034515 21.555081 27.202706 O 0.0 **** 0.0
2972 H 39.320411 22.440279 27.56979 H 0.0 **** 0.0
2973 H 38.854988 21.642896 26.222848 H 0.0 **** 0.0
2974 O 4.849199 46.478986 21.363414 O 0.0 **** 0.0
2975 H 5.183092 45.58855 21.054055 H 0.0 **** 0.0
2976 H 4.068616 46.755371 20.802732 H 0.0 **** 0.0
2977 O 26.884194 38.076288 30.801222 O 0.0 **** 0.0
2978 H 27.371709 37.256457 30.500773 H 0.0 **** 0.0
2979 H 25.925253 38.014016 30.524424 H 0.0 **** 0.0
2980 O 35.324199 11.910783 16.649724 O 0.0 **** 0.0
2981 H 34.46123 11.512114 16.339223 H 0.0 **** 0.0
2982 H 35.176982 12.866302 16.905407 H 0.0 **** 0.0
2983 O 25.407116 29.734078 38.010736 O 0.0 **** 0.0
2984 H 25.678831 30.696485 38.013224 H 0.0 **** 0.0
2985 H 24.411931 29.668557 38.084071 H 0.0 **** 0.0
2986 O 18.484613 15.478373 1.016327 O 0.0 **** 0.0
2987 H 19.254861 16.114769 1.05853 H 0.0 **** 0.0
2988 H 18.439569 15.069641 0.10475 H 0.0 **** 0.0
2989 O 28.912673 17.250488 33.239005 O 0.0 **** 0.0
2990 H 29.365934 16.367355 33.117786 H 0.0 **** 0.0
2991 H 29.590736 17.98346 33.183814 H 0.0 **** 0.0
2992 O 12.252675 46.744364 29.06573 O 0.0 **** 0.0
2993 H 11.374613 46.936483 29.504091 H 0.0 **** 0.0
2994 H 12.942104 47.383776 29.406172 H 0.0 **** 0.0
2995 O 8.794764 25.242132 5.312157 O 0.0 **** 0.0
2996 H 9.395876 26.019885 5.128232 H 0.0 **** 0.0
2997 H 8.380097 25.347846 6.216004 H 0.0 **** 0.0
2998 O 32.611022 2.504318 22.164546 O 0.0 **** 0.0
2999 H 32.230267 2.694626 23.069461 H 0.0 **** 0.0
3000 H 31.910845 2.078904 21.591103 H 0.0 **** 0.0
3001 O 24.890461 10.612138 42.095871 O 0.0 **** 0.0
3002 H 25.556521 11.175688 41.607161 H 0.0 **** 0.0
3003 H 24.696118 11.022942 42.986677 H 0.0 **** 0.0
3004 O 25.994677 17.034889 40.390339 O 0.0 **** 0.0
3005 H 25.234665 16.436709 40.644555 H 0.0 **** 0.0
3006 H 26.034464 17.118318 39.394588 H 0.0 **** 0.0
3007 O 46.098091 -0.00929 47.537793 O 0.0 **** 0.0
3008 H 45.387796 0.664553 47.33413 H 0.0 **** 0.0
3009 H 46.947459 0.252971 47.079693 H 0.0 **** 0.0
3010 O 37.299048 34.775377 45.192446 O 0.0 **** 0.0
3011 H 36.926604 33.903506 45.510549 H 0.0 **** 0.0
3012 H 38.29713 34.75246 45.250502 H 0.0 **** 0.0
3013 O 35.718488 16.392872 32.150407 O 0.0 **** 0.0
3014 H 34.765954 16.094233 32.210051 H 0.0 **** 0.0
3015 H 36.289624 15.627774 31.85293 H 0.0 **** 0.0
3016 O 34.731731 46.583516 24.205174 O 0.0 **** 0.0
3017 H 34.477579 47.499382 23.894272 H 0.0 **** 0.0
3018 H 33.90914 46.082999 24.475157 H 0.0 **** 0.0
3019 O 36.548564 37.999837 22.947458 O 0.0 **** 0.0
3020 H 36.734469 37.212497 22.359581 H 0.0 **** 0.0
3021 H 35.59015 37.983999 23.232512 H 0.0 **** 0.0
3022 O 18.403073 14.32797 44.698956 O 0.0 **** 0.0
3023 H 18.127596 15.174805 45.153979 H 0.0 **** 0.0
3024 H 17.853358 14.199084 43.873569 H 0.0 **** 0.0
3025 O 18.460079 31.658665 40.130325 O 0.0 **** 0.0
3026 H 18.411883 32.308724 39.37193 H 0.0 **** 0.0
3027 H 18.974737 30.850367 39.844241 H 0.0 **** 0.0
3028 O 5.185397 31.98496 2.336698 O 0.0 **** 0.0
3029 H 6.004329 31.416719 2.417423 H 0.0 **** 0.0
3030 H 5.245459 32.749252 2.978814 H 0.0 **** 0.0
3031 O 26.798265 35.695313 38.393622 O 0.0 **** 0.0
3032 H 26.086131 35.913911 39.060813 H 0.0 **** 0.0
3033 H 26.398664 35.177271 37.637306 H 0.0 **** 0.0
3034 O 5.409648 34.659761 4.053711 O 0.0 **** 0.0
3035 H 4.693366 34.180409 4.560884 H 0.0 **** 0.0
3036 H 5.378062 35.634821 4.273539 H 0.0 **** 0.0
3037 O 7.549774 16.754469 25.496764 O 0.0 **** 0.0
3038 H 6.552864 16.791372 25.42698 H 0.0 **** 0.0
3039 H 7.93308 17.649972 25.270459 H 0.0 **** 0.0
3040 O 47.402425 15.277523 16.383842 O 0.0 **** 0.0
3041 H 47.933923 15.371922 15.542022 H 0.0 **** 0.0
3042 H 48.023869 15.205126 17.163989 H 0.0 **** 0.0
3043 O 26.580196 25.190887 23.73869 O 0.0 **** 0.0
3044 H 26.520777 25.935061 24.404075 H 0.0 **** 0.0
3045 H 27.451864 24.713443 23.849623 H 0.0 **** 0.0
3046 O 4.782788 17.688678 33.102579 O 0.0 **** 0.0
3047 H 3.813949 17.733866 33.346246 H 0.0 **** 0.0
3048 H 4.92755 16.946631 32.448001 H 0.0 **** 0.0
3049 O 30.539297 5.60043 28.127293 O 0.0 **** 0.0
3050 H 30.461395 5.074327 28.974176 H 0.0 **** 0.0
3051 H 31.442228 6.027935 28.082388 H 0.0 **** 0.0
3052 O 11.619417 5.519545 18.064922 O 0.0 **** 0.0
3053 H 11.812277 4.56319 18.284587 H 0.0 **** 0.0
3054 H 12.466583 5.976628 17.793911 H 0.0 **** 0.0
3055 O 13.684865 7.309167 29.108443 O 0.0 **** 0.0
3056 H 13.641766 6.562839 28.444214 H 0.0 **** 0.0
3057 H 14.060702 8.125092 28.669039 H 0.0 **** 0.0
3058 O 42.895252 43.525636 5.19097 O 0.0 **** 0.0
3059 H 41.901119 43.612565 5.255823 H 0.0 **** 0.0
3060 H 43.146047 42.557568 5.193979 H 0.0 **** 0.0
3061 O 17.721416 37.036688 19.776525 O 0.0 **** 0.0
3062 H 18.305768 36.510929 19.158324 H 0.0 **** 0.0
3063 H 18.288661 37.632566 20.345053 H 0.0 **** 0.0
3064 O 41.52666 8.649016 29.192214 O 0.0 **** 0.0
3065 H 41.125331 7.765729 29.434704 H 0.0 **** 0.0
3066 H 40.804103 9.337574 29.130069 H 0.0 **** 0.0
3067 O 10.100994 15.577074 3.645915 O 0.0 **** 0.0
3068 H 9.516505 16.383148 3.739079 H 0.0 **** 0.0
3069 H 10.786862 15.742841 2.937276 H 0.0 **** 0.0
3070 O 28.850168 33.47219 25.249061 O 0.0 **** 0.0
3071 H 28.988952 34.456278 25.360291 H 0.0 **** 0.0
3072 H 29.73765 33.013785 25.201054 H 0.0 **** 0.0
3073 O 31.509045 1.512386 2.850837 O 0.0 **** 0.0
3074 H 30.578758 1.693629 2.531805 H 0.0 **** 0.0
3075 H 31.647978 1.950235 3.73912 H 0.0 **** 0.0
3076 O 10.073809 21.175555 29.325999 O 0.0 **** 0.0
3077 H 10.40931 22.077772 29.59712 H 0.0 **** 0.0
3078 H 10.229024 20.525013 30.069481 H 0.0 **** 0.0
3079 O 4.465902 5.896918 16.845691 O 0.0 **** 0.0
3080 H 5.401701 6.173926 16.627495 H 0.0 **** 0.0
3081 H 3.86105 6.691157 16.787358 H 0.0 **** 0.0
3082 O 39.638147 6.539366 14.595514 O 0.0 **** 0.0
3083 H 39.246135 7.445192 14.434672 H 0.0 **** 0.0
3084 H 38.901397 5.872777 14.709185 H 0.0 **** 0.0
3085 O 2.369411 28.790675 12.792484 O 0.0 **** 0.0
3086 H 2.900101 29.637704 12.761307 H 0.0 **** 0.0
3087 H 1.420695 28.982345 12.540962 H 0.0 **** 0.0
3088 O 34.816911 21.936448 10.640125 O 0.0 **** 0.0
3089 H 35.752883 22.242128 10.814998 H 0.0 **** 0.0
3090 H 34.828981 21.189572 9.975225 H 0.0 **** 0.0
3091 O 46.562432 20.118828 0.757942 O 0.0 **** 0.0
3092 H 47.345073 20.253084 1.365818 H 0.0 **** 0.0
3093 H 46.293199 20.996947 0.362364 H 0.0 **** 0.0
3094 O 24.56505 13.401778 34.411978 O 0.0 **** 0.0
3095 H 25.459547 13.587509 34.00523 H 0.0 **** 0.0
3096 H 24.6226 12.583816 34.984419 H 0.0 **** 0.0
3097 O 38.35869 33.602509 33.622977 O 0.0 **** 0.0
3098 H 39.130769 33.971712 34.140322 H 0.0 **** 0.0
3099 H 37.68797 34.326775 33.462864 H 0.0 **** 0.0
3100 O 26.522561 29.744085 2.407418 O 0.0 **** 0.0
3101 H 26.04523 28.872008 2.299259 H 0.0 **** 0.0
3102 H 27.506536 29.60089 2.300878 H 0.0 **** 0.0
3103 O 42.292206 28.058615 28.534662 O 0.0 **** 0.0
3104 H 42.399114 29.047333 28.429441 H 0.0 **** 0.0
3105 H 41.333578 27.810341 28.395179 H 0.0 **** 0.0
3106 O 38.777473 28.614085 2.883337 O 0.0 **** 0.0
3107 H 38.255993 29.467371 2.888315 H 0.0 **** 0.0
3108 H 38.146746 27.838041 2.882025 H 0.0 **** 0.0
3109 O 39.718737 28.667073 32.643534 O 0.0 **** 0.0
3110 H 38.897814 28.115161 32.790306 H 0.0 **** 0.0
3111 H 39.506407 29.630418 32.807687 H 0.0 **** 0.0
3112 O 21.910896 26.105516 28.349238 O 0.0 **** 0.0
3113 H 22.64435 26.735934 28.603563 H 0.0 **** 0.0
3114 H 22.283117 25.182246 28.253918 H 0.0 **** 0.0
3115 O 43.311538 38.111237 34.334753 O 0.0 **** 0.0
3116 H 42.939789 39.001462 34.071381 H 0.0 **** 0.0
3117 H 43.820459 38.202621 35.190739 H 0.0 **** 0.0
3118 O 12.06706 42.767869 41.20272 O 0.0 **** 0.0
3119 H 12.290349 41.820618 41.432765 H 0.0 **** 0.0
3120 H 11.0853 42.916993 41.320926 H 0.0 **** 0.0
3121 O 4.348635 46.726992 35.731114 O 0.0 **** 0.0
3122 H 5.296975 46.522634 35.488311 H 0.0 **** 0.0
3123 H 4.235712 46.656266 36.722229 H 0.0 **** 0.0
3124 O 40.895824 23.349782 23.074308 O 0.0 **** 0.0
3125 H 39.911966 23.186186 23.001344 H 0.0 **** 0.0
3126 H 41.359031 22.495705 23.311064 H 0.0 **** 0.0
3127 O 9.804087 44.900967 47.140091 O 0.0 **** 0.0
3128 H 10.16517 45.651157 47.694074 H 0.0 **** 0.0
3129 H 9.009417 44.501567 47.5973 H 0.0 **** 0.0
3130 O 17.02258 8.96509 18.891492 O 0.0 **** 0.0
3131 H 16.422653 8.265367 19.279484 H 0.0 **** 0.0
3132 H 16.684692 9.871572 19.144842 H 0.0 **** 0.0
3133 O 24.069289 30.894324 29.631039 O 0.0 **** 0.0
3134 H 24.041009 31.86902 29.852915 H 0.0 **** 0.0
3135 H 23.235912 30.452574 29.963308 H 0.0 **** 0.0
3136 O 20.737037 2.53388 38.523093 O 0.0 **** 0.0
3137 H 20.573592 1.566858 38.327601 H 0.0 **** 0.0
3138 H 19.928798 3.0661 38.27099 H 0.0 **** 0.0
3139 O 34.878278 9.355703 47.998143 O 0.0 **** 0.0
3140 H 34.010331 8.858986 47.996258 H 0.0 **** 0.0
3141 H 34.699204 10.339564 48.001713 H 0.0 **** 0.0
3142 O 27.022621 17.318756 1.80849 O 0.0 **** 0.0
3143 H 27.75828 16.656793 1.664704 H 0.0 **** 0.0
3144 H 26.580159 17.139634 2.687243 H 0.0 **** 0.0
3145 O 44.223063 41.428156 26.969283 O 0.0 **** 0.0
3146 H 44.531883 40.501817 27.185131 H 0.0 **** 0.0
3147 H 45.010926 41.993829 26.725666 H 0.0 **** 0.0
3148 O 22.778601 12.176793 18.482343 O 0.0 **** 0.0
3149 H 21.844969 12.400936 18.202784 H 0.0 **** 0.0
3150 H 23.394164 12.279276 17.700907 H 0.0 **** 0.0
3151 O 25.004605 6.775287 34.959637 O 0.0 **** 0.0
3152 H 24.593501 5.903512 34.693057 H 0.0 **** 0.0
3153 H 24.285587 7.410162 35.242498 H 0.0 **** 0.0
3154 O 9.878984 15.559737 23.123991 O 0.0 **** 0.0
3155 H 9.001909 15.487873 23.599003 H 0.0 **** 0.0
3156 H 9.747857 16.030434 22.251458 H 0.0 **** 0.0
3157 O 41.575726 10.704712 14.856859 O 0.0 **** 0.0
3158 H 41.015079 10.862506 15.669779 H 0.0 **** 0.0
3159 H 42.192381 9.934868 15.0216 H 0.0 **** 0.0
3160 O 33.434597 2.171353 42.081661 O 0.0 **** 0.0
3161 H 32.774711 2.091698 42.828835 H 0.0 **** 0.0
3162 H 33.473097 1.308495 41.57762 H 0.0 **** 0.0
3163 O 37.777303 43.431604 26.093434 O 0.0 **** 0.0
3164 H 36.943178 43.211629 25.587559 H 0.0 **** 0.0
3165 H 38.175105 42.591267 26.461741 H 0.0 **** 0.0
3166 O 48.000425 29.288395 39.140316 O 0.0 **** 0.0
3167 H 47.17065 29.183392 38.592126 H 0.0 **** 0.0
3168 H 47.903812 30.080732 39.742753 H 0.0 **** 0.0
3169 O 39.928624 27.502342 35.355737 O 0.0 **** 0.0
3170 H 40.386361 26.661493 35.06675 H 0.0 **** 0.0
3171 H 40.195457 28.252093 34.750148 H 0.0 **** 0.0
3172 O 44.75959 46.989507 40.745488 O 0.0 **** 0.0
3173 H 44.073943 47.443167 41.314824 H 0.0 **** 0.0
3174 H 44.405699 46.106283 40.437687 H 0.0 **** 0.0
3175 O 29.975003 18.850807 41.464689 O 0.0 **** 0.0
3176 H 29.887947 18.70739 40.478831 H 0.0 **** 0.0
3177 H 29.136854 18.550956 41.920385 H 0.0 **** 0.0
3178 O 6.153358 13.242902 31.591031 O 0.0 **** 0.0
3179 H 5.643865 13.887641 31.021126 H 0.0 **** 0.0
3180 H 7.084612 13.150302 31.238535 H 0.0 **** 0.0
3181 O 12.934116 36.837021 41.24868 O 0.0 **** 0.0
3182 H 13.225784 35.972319 41.657685 H 0.0 **** 0.0
3183 H 12.750502 37.50267 41.972047 H 0.0 **** 0.0
3184 O 15.187778 10.864027 46.487554 O 0.0 **** 0.0
3185 H 14.921471 10.876201 45.52371 H 0.0 **** 0.0
3186 H 15.809618 11.62539 46.671142 H 0.0 **** 0.0
3187 O 43.454128 44.454651 25.177303 O 0.0 **** 0.0
3188 H 43.790926 43.516121 25.253397 H 0.0 **** 0.0
3189 H 43.567821 44.774288 24.236574 H 0.0 **** 0.0
3190 O 8.15925 21.778637 31.626453 O 0.0 **** 0.0
3191 H 9.154915 21.690155 31.596683 H 0.0 **** 0.0
3192 H 7.909357 22.746187 31.588193 H 0.0 **** 0.0
3193 O 22.058496 18.53175 27.705252 O 0.0 **** 0.0
3194 H 21.38853 19.19974 27.381216 H 0.0 **** 0.0
3195 H 22.60908 18.938637 28.434199 H 0.0 **** 0.0
3196 O 9.056933 44.596303 42.763522 O 0.0 **** 0.0
3197 H 9.327997 43.714909 42.37657 H 0.0 **** 0.0
3198 H 8.432339 44.445892 43.529891 H 0.0 **** 0.0
3199 O 10.405228 35.981078 4.490232 O 0.0 **** 0.0
3200 H 9.641013 36.62419 4.440783 H 0.0 **** 0.0
3201 H 10.097517 35.07488 4.200089 H 0.0 **** 0.0
3202 O 13.092782 29.495956 8.006169 O 0.0 **** 0.0
3203 H 13.378271 28.702597 8.543887 H 0.0 **** 0.0
3204 H 12.255118 29.275789 7.506261 H 0.0 **** 0.0
3205 O 26.729695 32.593476 18.64169 O 0.0 **** 0.0
3206 H 27.486108 32.070289 19.034343 H 0.0 **** 0.0
3207 H 26.109062 31.973182 18.161987 H 0.0 **** 0.0
3208 O 43.760366 19.409523 36.931498 O 0.0 **** 0.0
3209 H 44.003029 18.582385 36.424526 H 0.0 **** 0.0
3210 H 44.567601 19.992489 37.024154 H 0.0 **** 0.0
3211 O 9.037604 36.455344 11.668263 O 0.0 **** 0.0
3212 H 9.365518 35.80081 12.349527 H 0.0 **** 0.0
3213 H 8.072375 36.655794 11.836235 H 0.0 **** 0.0
3214 O 20.54318 41.208225 42.243357 O 0.0 **** 0.0
3215 H 21.443997 41.638634 42.185571 H 0.0 **** 0.0
3216 H 20.482188 40.674814 43.087048 H 0.0 **** 0.0
3217 O 37.529055 35.075215 1.312781 O 0.0 **** 0.0
3218 H 38.225772 34.614653 1.862809 H 0.0 **** 0.0
3219 H 37.516678 34.682092 0.393344 H 0.0 **** 0.0
3220 O 24.251052 11.843354 39.968789 O 0.0 **** 0.0
3221 H 23.390048 12.271142 39.693594 H 0.0 **** 0.0
3222 H 24.940775 11.997298 39.261226 H 0.0 **** 0.0
3223 O 38.332639 43.639178 39.048271 O 0.0 **** 0.0
3224 H 37.666375 43.054944 38.584778 H 0.0 **** 0.0
3225 H 38.970903 44.014856 38.376298 H 0.0 **** 0.0
3226 O 6.319728 18.750543 35.565632 O 0.0 **** 0.0
3227 H 7.277014 18.481144 35.670941 H 0.0 **** 0.0
3228 H 6.107285 18.852881 34.593799 H 0.0 **** 0.0
3229 O 8.711669 23.996135 24.620185 O 0.0 **** 0.0
3230 H 8.29101 24.095844 25.521943 H 0.0 **** 0.0
3231 H 9.137313 23.094022 24.5489 H 0.0 **** 0.0
3232 O 4.900629 32.95188 28.311674 O 0.0 **** 0.0
3233 H 4.002003 32.532983 28.181065 H 0.0 **** 0.0
3234 H 5.612031 32.260111 28.187471 H 0.0 **** 0.0
3235 O 24.641463 23.901855 42.422917 O 0.0 **** 0.0
3236 H 23.707098 24.133981 42.152469 H 0.0 **** 0.0
3237 H 24.795462 22.923626 42.283584 H 0.0 **** 0.0
3238 O 11.892657 27.563319 45.397205 O 0.0 **** 0.0
3239 H 11.084787 27.322806 45.935315 H 0.0 **** 0.0
3240 H 12.636724 27.82511 46.011935 H 0.0 **** 0.0
3241 O 38.302125 40.178305 22.477993 O 0.0 **** 0.0
3242 H 39.187781 40.509291 22.803761 H 0.0 **** 0.0
3243 H 38.324139 39.18094 22.408418 H 0.0 **** 0.0
3244 O 22.641858 40.605292 38.082322 O 0.0 **** 0.0
3245 H 23.6316 40.736941 38.026271 H 0.0 **** 0.0
3246 H 22.444315 39.647181 38.289835 H 0.0 **** 0.0
3247 O 8.991043 43.247353 28.625873 O 0.0 **** 0.0
3248 H 9.414071 43.621343 27.8005 H 0.0 **** 0.0
3249 H 9.681584 43.159716 29.343881 H 0.0 **** 0.0
3250 O 21.138003 7.463254 11.008754 O 0.0 **** 0.0
3251 H 21.806551 8.20683 10.994576 H 0.0 **** 0.0
3252 H 20.217864 7.840315 10.90277 H 0.0 **** 0.0
3253 O 33.008785 18.027212 5.21148 O 0.0 **** 0.0
3254 H 32.428556 17.275578 5.525239 H 0.0 **** 0.0
3255 H 32.531701 18.895563 5.347198 H 0.0 **** 0.0
3256 O 24.737019 33.107023 4.237727 O 0.0 **** 0.0
3257 H 24.512213 33.741794 3.498409 H 0.0 **** 0.0
3258 H 24.069155 33.204852 4.975596 H 0.0 **** 0.0
3259 O 11.377818 42.104765 9.90456 O 0.0 **** 0.0
3260 H 11.364641 41.105323 9.936267 H 0.0 **** 0.0
3261 H 11.502147 42.465914 10.828776 H 0.0 **** 0.0
3262 O 35.331062 12.031884 30.114876 O 0.0 **** 0.0
3263 H 35.032951 12.847258 29.618531 H 0.0 **** 0.0
3264 H 35.116098 11.216914 29.576659 H 0.0 **** 0.0
3265 O 46.995637 38.203564 21.435364 O 0.0 **** 0.0
3266 H 47.828941 37.983409 21.942512 H 0.0 **** 0.0
3267 H 46.23293 37.668881 21.799306 H 0.0 **** 0.0
3268 O 42.561391 25.852796 27.708621 O 0.0 **** 0.0
3269 H 42.273897 24.940359 27.417295 H 0.0 **** 0.0
3270 H 43.560253 25.899981 27.719126 H 0.0 **** 0.0
3271 O 40.51745 41.232015 34.339995 O 0.0 **** 0.0
3272 H 39.640853 40.768513 34.210356 H 0.0 **** 0.0
3273 H 41.177171 40.592812 34.73528 H 0.0 **** 0.0
3274 O 35.607317 47.53314 13.290545 O 0.0 **** 0.0
3275 H 35.012523 46.890664 13.77377 H 0.0 **** 0.0
3276 H 35.08419 47.999764 12.577339 H 0.0 **** 0.0
3277 O 5.514012 29.777518 47.816492 O 0.0 **** 0.0
3278 H 6.326636 30.329063 48.004911 H 0.0 **** 0.0
3279 H 5.719639 29.11698 47.094364 H 0.0 **** 0.0
3280 O 7.25975 28.989427 25.172924 O 0.0 **** 0.0
3281 H 7.188837 29.983949 25.095718 H 0.0 **** 0.0
3282 H 8.158757 28.693354 24.85014 H 0.0 **** 0.0
3283 O 11.345735 0.752029 24.807243 O 0.0 **** 0.0
3284 H 11.76271 0.046477 24.234189 H 0.0 **** 0.0
3285 H 11.540911 0.558752 25.768812 H 0.0 **** 0.0
3286 O 16.027195 5.181942 9.022391 O 0.0 **** 0.0
3287 H 17.022172 5.088719 9.059728 H 0.0 **** 0.0
3288 H 15.783224 6.151751 9.018961 H 0.0 **** 0.0
3289 O 23.512416 16.154239 45.31049 O 0.0 **** 0.0
3290 H 24.491704 15.956123 45.353016 H 0.0 **** 0.0
3291 H 23.00106 15.296702 45.253854 H 0.0 **** 0.0
3292 O 46.407642 45.317291 2.060779 O 0.0 **** 0.0
3293 H 45.475506 45.202829 2.404412 H 0.0 **** 0.0
3294 H 46.749422 44.439294 1.72556 H 0.0 **** 0.0
3295 O 29.410306 24.804957 0.24103 O 0.0 **** 0.0
3296 H 29.898301 23.983842 0.537162 H 0.0 **** 0.0
3297 H 29.893378 25.616509 0.569798 H 0.0 **** 0.0
3298 O 39.850474 10.873899 17.702172 O 0.0 **** 0.0
3299 H 40.537101 11.600929 17.696454 H 0.0 **** 0.0
3300 H 39.220548 11.00438 16.936515 H 0.0 **** 0.0
3301 O 44.503585 7.892784 32.850857 O 0.0 **** 0.0
3302 H 43.512409 7.828762 32.734513 H 0.0 **** 0.0
3303 H 44.859506 7.013391 33.167167 H 0.0 **** 0.0
3304 O 20.893643 9.55233 40.42217 O 0.0 **** 0.0
3305 H 21.857905 9.353468 40.246913 H 0.0 **** 0.0
3306 H 20.679771 9.349124 41.377696 H 0.0 **** 0.0
3307 O 12.889947 27.749698 21.319382 O 0.0 **** 0.0
3308 H 13.381584 28.615087 21.416635 H 0.0 **** 0.0
3309 H 13.258243 27.082566 21.96696 H 0.0 **** 0.0
3310 O 1.098909 34.831429 19.02398 O 0.0 **** 0.0
3311 H 2.086497 34.939667 18.909892 H 0.0 **** 0.0
3312 H 0.888894 33.873174 19.218155 H 0.0 **** 0.0
3313 O 38.190906 33.425827 36.260731 O 0.0 **** 0.0
3314 H 37.881573 34.31371 35.920086 H 0.0 **** 0.0
3315 H 38.317511 33.474692 37.251512 H 0.0 **** 0.0
3316 O 13.899503 15.944586 42.848253 O 0.0 **** 0.0
3317 H 14.08239 14.961464 42.857621 H 0.0 **** 0.0
3318 H 12.911601 16.09984 42.851071 H 0.0 **** 0.0
3319 O 32.57707 1.977237 28.884514 O 0.0 **** 0.0
3320 H 31.84261 2.65487 28.922524 H 0.0 **** 0.0
3321 H 33.458852 2.444687 28.82117 H 0.0 **** 0.0
3322 O 7.307575 15.230433 30.502814 O 0.0 **** 0.0
3323 H 8.155799 14.799704 30.194509 H 0.0 **** 0.0
3324 H 7.385678 16.223236 30.411677 H 0.0 **** 0.0
3325 O 39.204357 1.295977 1.059847 O 0.0 **** 0.0
3326 H 39.629636 2.19989 1.106129 H 0.0 **** 0.0
3327 H 39.915329 0.592713 1.060835 H 0.0 **** 0.0
3328 O 15.643867 41.970863 12.966346 O 0.0 **** 0.0
3329 H 16.528764 41.657772 13.311302 H 0.0 **** 0.0
3330 H 15.065096 42.245571 13.734215 H 0.0 **** 0.0
3331 O 20.28771 40.333767 46.192096 O 0.0 **** 0.0
3332 H 19.428532 40.595361 46.631918 H 0.0 **** 0.0
3333 H 20.333486 40.74259 45.280596 H 0.0 **** 0.0
3334 O 26.881378 1.944768 38.421651 O 0.0 **** 0.0
3335 H 27.018033 2.896322 38.697211 H 0.0 **** 0.0
3336 H 26.071838 1.57801 38.880123 H 0.0 **** 0.0
3337 O 12.064856 1.327298 37.061279 O 0.0 **** 0.0
3338 H 11.48506 0.526111 36.912963 H 0.0 **** 0.0
3339 H 11.532976 2.044961 37.510865 H 0.0 **** 0.0
3340 O 3.210014 39.207741 18.993082 O 0.0 **** 0.0
3341 H 4.172631 39.014546 19.183099 H 0.0 **** 0.0
3342 H 3.07379 40.196733 18.934763 H 0.0 **** 0.0
3343 O 32.867405 13.133325 29.865486 O 0.0 **** 0.0
3344 H 32.063295 13.3526 29.312866 H 0.0 **** 0.0
3345 H 32.883083 12.151792 30.056302 H 0.0 **** 0.0
3346 O 22.498826 9.852828 26.640591 O 0.0 **** 0.0
3347 H 23.434164 9.517146 26.528683 H 0.0 **** 0.0
3348 H 21.853549 9.133454 26.383335 H 0.0 **** 0.0
3349 O 4.588097 4.777995 2.888378 O 0.0 **** 0.0
3350 H 5.043197 5.133934 3.704621 H 0.0 **** 0.0
3351 H 4.753678 3.794378 2.816671 H 0.0 **** 0.0
3352 O 17.351408 25.611563 27.357524 O 0.0 **** 0.0
3353 H 16.489936 25.621321 26.849751 H 0.0 **** 0.0
3354 H 17.424967 24.757589 27.872675 H 0.0 **** 0.0
3355 O 9.951278 25.507652 33.291386 O 0.0 **** 0.0
3356 H 10.008619 24.522164 33.131422 H 0.0 **** 0.0
3357 H 9.011567 25.815402 33.142067 H 0.0 **** 0.0
3358 O 25.452284 13.116641 36.951172 O 0.0 **** 0.0
3359 H 25.096095 13.591446 37.756004 H 0.0 **** 0.0
3360 H 25.503523 12.135645 37.13848 H 0.0 **** 0.0
3361 O 36.039987 24.068727 45.678975 O 0.0 **** 0.0
3362 H 35.050535 23.923665 45.676884 H 0.0 **** 0.0
3363 H 36.233126 25.049344 45.645041 H 0.0 **** 0.0
3364 O 18.23096 6.810239 5.021457 O 0.0 **** 0.0
3365 H 17.609714 7.571279 5.208364 H 0.0 **** 0.0
3366 H 19.081487 7.162531 4.630871 H 0.0 **** 0.0
3367 O 12.907501 27.392993 12.71819 O 0.0 **** 0.0
3368 H 12.750245 28.380441 12.701413 H 0.0 **** 0.0
3369 H 12.029977 26.916677 12.774205 H 0.0 **** 0.0
3370 O 5.434065 29.515656 44.953263 O 0.0 **** 0.0
3371 H 4.443712 29.642481 44.896877 H 0.0 **** 0.0
3372 H 5.648828 28.540491 44.89855 H 0.0 **** 0.0
3373 O 30.459455 37.343283 17.53703 O 0.0 **** 0.0
3374 H 30.125443 36.601832 18.119052 H 0.0 **** 0.0
3375 H 31.037078 37.956009 18.076456 H 0.0 **** 0.0
3376 O 31.967926 21.49391 36.208358 O 0.0 **** 0.0
3377 H 32.499537 22.316803 36.00761 H 0.0 **** 0.0
3378 H 31.001966 21.665712 36.014787 H 0.0 **** 0.0
3379 O 38.429469 34.567254 10.495605 O 0.0 **** 0.0
3380 H 37.798234 34.101208 9.875599 H 0.0 **** 0.0
3381 H 39.368411 34.301395 10.277043 H 0.0 **** 0.0
3382 O 28.827657 20.710916 44.411754 O 0.0 **** 0.0
3383 H 29.128058 19.75722 44.42867 H 0.0 **** 0.0
3384 H 29.626853 21.312007 44.405675 H 0.0 **** 0.0
3385 O 24.16188 31.411955 2.96009 O 0.0 **** 0.0
3386 H 24.671219 30.596542 3.235296 H 0.0 **** 0.0
3387 H 23.192483 31.184154 2.868228 H 0.0 **** 0.0
3388 O 19.032866 31.272226 19.401611 O 0.0 **** 0.0
3389 H 18.243595 31.802311 19.091571 H 0.0 **** 0.0
3390 H 19.219684 30.539132 18.747596 H 0.0 **** 0.0
3391 O 47.41946 2.47785 28.9837 O 0.0 **** 0.0
3392 H 46.428424 2.603712 29.029189 H 0.0 **** 0.0
3393 H 47.869925 3.370509 29.001154 H 0.0 **** 0.0
3394 O 35.332547 10.434908 24.202848 O 0.0 **** 0.0
3395 H 34.870938 9.557364 24.072856 H 0.0 **** 0.0
3396 H 35.637211 10.785618 23.317272 H 0.0 **** 0.0
3397 O 15.132118 9.06662 10.465796 O 0.0 **** 0.0
3398 H 14.514778 9.817209 10.230064 H 0.0 **** 0.0
3399 H 14.805962 8.6152 11.296401 H 0.0 **** 0.0
3400 O 45.112558 35.974146 33.211739 O 0.0 **** 0.0
3401 H 44.740557 36.853971 32.91579 H 0.0 **** 0.0
3402 H 46.058589 36.096335 33.512003 H 0.0 **** 0.0
3403 O 19.094685 4.993788 20.435771 O 0.0 **** 0.0
3404 H 18.923425 5.491458 21.286099 H 0.0 **** 0.0
3405 H 18.223164 4.724403 20.025959 H 0.0 **** 0.0
3406 O 36.277323 47.15317 10.909112 O 0.0 **** 0.0
3407 H 36.916402 46.383991 10.906642 H 0.0 **** 0.0
3408 H 36.788953 48.011423 10.950332 H 0.0 **** 0.0
3409 O 35.688025 13.519473 31.680224 O 0.0 **** 0.0
3410 H 35.490501 12.694469 32.209766 H 0.0 **** 0.0
3411 H 34.837327 14.015696 31.506621 H 0.0 **** 0.0
3412 O 30.797237 28.8756 33.293702 O 0.0 **** 0.0
3413 H 29.881041 28.750646 33.674537 H 0.0 **** 0.0
3414 H 30.996226 28.133353 32.653752 H 0.0 **** 0.0
3415 O 16.228469 2.298207 6.031454 O 0.0 **** 0.0
3416 H 15.77814 3.190109 5.989291 H 0.0 **** 0.0
3417 H 15.537045 1.578334 6.092933 H 0.0 **** 0.0
3418 O 16.885415 38.423606 14.073775 O 0.0 **** 0.0
3419 H 15.978279 38.112054 14.356799 H 0.0 **** 0.0
3420 H 16.791012 39.176831 13.422774 H 0.0 **** 0.0
3421 O 29.872557 4.154766 13.321805 O 0.0 **** 0.0
3422 H 30.544719 3.455161 13.07929 H 0.0 **** 0.0
3423 H 28.994488 3.718957 13.519611 H 0.0 **** 0.0
3424 O 1.488706 18.289903 39.433913 O 0.0 **** 0.0
3425 H 2.487667 18.243632 39.433969 H 0.0 **** 0.0
3426 H 1.199417 19.247177 39.434319 H 0.0 **** 0.0
3427 O 33.546597 18.825729 34.860234 O 0.0 **** 0.0
3428 H 33.266334 19.0782 33.934073 H 0.0 **** 0.0
3429 H 33.539833 19.637982 35.443554 H 0.0 **** 0.0
3430 O 41.942705 23.56224 31.442419 O 0.0 **** 0.0
3431 H 41.786556 24.548625 31.494623 H 0.0 **** 0.0
3432 H 41.565139 23.121486 32.256816 H 0.0 **** 0.0
3433 O 19.73114 28.105455 13.85222 O 0.0 **** 0.0
3434 H 20.212837 27.255901 13.63707 H 0.0 **** 0.0
3435 H 18.83198 27.891266 14.233923 H 0.0 **** 0.0
3436 O 29.90545 30.061433 28.769327 O 0.0 **** 0.0
3437 H 30.562434 30.774685 29.013676 H 0.0 **** 0.0
3438 H 30.394877 29.214316 28.562164 H 0.0 **** 0.0
3439 O 7.279715 11.783777 43.845711 O 0.0 **** 0.0
3440 H 8.243017 11.532199 43.75179 H 0.0 **** 0.0
3441 H 7.186241 12.776933 43.775234 H 0.0 **** 0.0
3442 O 34.425391 33.968067 12.075965 O 0.0 **** 0.0
3443 H 34.27599 34.809541 12.595257 H 0.0 **** 0.0
3444 H 35.322828 34.002774 11.636119 H 0.0 **** 0.0
3445 O 24.011702 8.886071 39.757659 O 0.0 **** 0.0
3446 H 24.640245 9.663173 39.724349 H 0.0 **** 0.0
3447 H 24.400384 8.120818 39.244457 H 0.0 **** 0.0
3448 O 47.74826 0.627161 14.400708 O 0.0 **** 0.0
3449 H 48.000711 -0.00071 15.136989 H 0.0 **** 0.0
3450 H 47.845949 1.570221 14.718762 H 0.0 **** 0.0
3451 O 2.67179 25.831976 35.820388 O 0.0 **** 0.0
3452 H 2.950066 25.15436 35.139608 H 0.0 **** 0.0
3453 H 3.484524 26.230612 36.245377 H 0.0 **** 0.0
3454 O 17.014752 38.990889 18.183583 O 0.0 **** 0.0
3455 H 17.301688 39.618219 17.459575 H 0.0 **** 0.0
3456 H 17.4963 39.216731 19.030442 H 0.0 **** 0.0
3457 O 11.239863 11.006709 10.861319 O 0.0 **** 0.0
3458 H 12.220281 11.05296 11.052903 H 0.0 **** 0.0
3459 H 10.995283 11.717483 10.201741 H 0.0 **** 0.0
3460 O 47.34837 5.905858 15.911882 O 0.0 **** 0.0
3461 H 48.04507 5.203372 16.057435 H 0.0 **** 0.0
3462 H 46.643342 5.827108 16.61672 H 0.0 **** 0.0
3463 O 7.393436 39.493393 47.641273 O 0.0 **** 0.0
3464 H 8.375055 39.372527 47.789184 H 0.0 **** 0.0
3465 H 6.901675 38.702316 48.005186 H 0.0 **** 0.0
3466 O 36.157839 24.571765 33.767371 O 0.0 **** 0.0
3467 H 35.72607 25.361734 34.20279 H 0.0 **** 0.0
3468 H 35.680598 24.359007 32.914706 H 0.0 **** 0.0
3469 O 40.597943 11.576996 27.168941 O 0.0 **** 0.0
3470 H 41.457801 11.277174 27.582238 H 0.0 **** 0.0
3471 H 39.862812 11.510353 27.84363 H 0.0 **** 0.0
3472 O 34.53505 30.659952 19.381674 O 0.0 **** 0.0
3473 H 34.488542 31.653534 19.485087 H 0.0 **** 0.0
3474 H 34.311871 30.412199 18.438874 H 0.0 **** 0.0
3475 O 18.909085 43.820245 14.684002 O 0.0 **** 0.0
3476 H 19.532167 44.392632 15.217112 H 0.0 **** 0.0
3477 H 17.965638 44.015003 14.952403 H 0.0 **** 0.0
3478 O 33.474525 5.796897 4.292503 O 0.0 **** 0.0
3479 H 33.479036 5.731457 5.290381 H 0.0 **** 0.0
3480 H 34.257019 6.341578 3.990695 H 0.0 **** 0.0
3481 O 26.214638 32.971553 40.085022 O 0.0 **** 0.0
3482 H 26.195839 32.069062 39.654651 H 0.0 **** 0.0
3483 H 26.188556 33.678468 39.37816 H 0.0 **** 0.0
3484 O 31.752194 4.961559 40.938636 O 0.0 **** 0.0
3485 H 31.894997 5.949132 40.872533 H 0.0 **** 0.0
3486 H 32.63765 4.499269 40.986782 H 0.0 **** 0.0
3487 O 34.561951 44.302392 19.865173 O 0.0 **** 0.0
3488 H 33.621456 43.968479 19.928679 H 0.0 **** 0.0
3489 H 34.55724 45.299655 19.79096 H 0.0 **** 0.0
3490 O 23.869218 10.484497 13.004222 O 0.0 **** 0.0
3491 H 23.375186 11.353504 12.975549 H 0.0 **** 0.0
3492 H 24.847735 10.653354 12.885668 H 0.0 **** 0.0
3493 O 1.99336 34.241851 29.422561 O 0.0 **** 0.0
3494 H 1.997104 35.23638 29.527255 H 0.0 **** 0.0
3495 H 2.702605 33.842877 30.003814 H 0.0 **** 0.0
3496 O 7.450273 4.344601 35.81827 O 0.0 **** 0.0
3497 H 7.263472 3.376728 35.649773 H 0.0 **** 0.0
3498 H 7.098753 4.599985 36.718978 H 0.0 **** 0.0
3499 O 14.557037 17.636242 26.708701 O 0.0 **** 0.0
3500 H 14.14394 18.546907 26.718844 H 0.0 **** 0.0
3501 H 14.658179 17.326678 25.763183 H 0.0 **** 0.0
3502 O 8.83285 21.139803 11.528105 O 0.0 **** 0.0
3503 H 9.576849 20.53724 11.239234 H 0.0 **** 0.0
3504 H 9.196907 21.858246 12.120866 H 0.0 **** 0.0
3505 O 11.419548 13.442308 46.861663 O 0.0 **** 0.0
3506 H 10.968448 13.332832 47.747432 H 0.0 **** 0.0
3507 H 12.252536 12.889336 46.841276 H 0.0 **** 0.0
3508 O 36.988654 13.482932 2.79952 O 0.0 **** 0.0
3509 H 36.693149 12.724094 2.219085 H 0.0 **** 0.0
3510 H 37.89821 13.785736 2.514775 H 0.0 **** 0.0
3511 O 15.15711 38.857779 20.974103 O 0.0 **** 0.0
3512 H 15.012339 39.797869 20.665339 H 0.0 **** 0.0
3513 H 15.795899 38.398805 20.356564 H 0.0 **** 0.0
3514 O 17.751857 18.151269 38.189652 O 0.0 **** 0.0
3515 H 17.965348 17.389078 38.800839 H 0.0 **** 0.0
3516 H 16.769926 18.161852 38.000542 H 0.0 **** 0.0
3517 O 42.070291 10.301691 3.633364 O 0.0 **** 0.0
3518 H 41.46302 10.148952 2.85365 H 0.0 **** 0.0
3519 H 42.213962 11.283652 3.75655 H 0.0 **** 0.0
3520 O 46.894976 7.09233 9.412322 O 0.0 **** 0.0
3521 H 47.571824 7.460091 10.050046 H 0.0 **** 0.0
3522 H 45.97744 7.223904 9.78766 H 0.0 **** 0.0
3523 O 14.147993 27.22736 4.221666 O 0.0 **** 0.0
3524 H 13.330093 26.797541 4.604234 H 0.0 **** 0.0
3525 H 14.063811 28.221657 4.287622 H 0.0 **** 0.0
3526 O 36.701624 29.266454 7.30856 O 0.0 **** 0.0
3527 H 36.80239 30.260789 7.343292 H 0.0 **** 0.0
3528 H 36.687378 28.966032 6.354827 H 0.0 **** 0.0
3529 O 28.414564 15.998557 41.123397 O 0.0 **** 0.0
3530 H 28.933915 16.736589 40.69253 H 0.0 **** 0.0
3531 H 28.818295 15.11796 40.87518 H 0.0 **** 0.0
3532 O 20.287655 4.438201 2.008784 O 0.0 **** 0.0
3533 H 19.964566 4.125249 1.115622 H 0.0 **** 0.0
3534 H 19.521527 4.460881 2.651121 H 0.0 **** 0.0
3535 O 11.060373 8.918331 5.062406 O 0.0 **** 0.0
3536 H 10.675985 8.377435 4.314248 H 0.0 **** 0.0
3537 H 10.976979 8.408992 5.918959 H 0.0 **** 0.0
3538 O 9.935926 42.852198 24.501853 O 0.0 **** 0.0
3539 H 8.973762 43.122891 24.533938 H 0.0 **** 0.0
3540 H 10.001404 41.880781 24.273546 H 0.0 **** 0.0
3541 O 31.509009 35.852515 13.080106 O 0.0 **** 0.0
3542 H 32.024537 35.056537 13.39746 H 0.0 **** 0.0
3543 H 30.575929 35.575421 12.850666 H 0.0 **** 0.0
3544 O 12.021968 22.746923 38.852701 O 0.0 **** 0.0
3545 H 11.085093 22.771675 38.503822 H 0.0 **** 0.0
3546 H 12.264813 23.644974 39.219572 H 0.0 **** 0.0
3547 O 43.75523 32.267144 45.340039 O 0.0 **** 0.0
3548 H 43.849609 33.260476 45.406726 H 0.0 **** 0.0
3549 H 42.800354 32.034782 45.15488 H 0.0 **** 0.0
3550 O 21.424371 42.989659 4.908102 O 0.0 **** 0.0
3551 H 21.178114 43.785364 4.354683 H 0.0 **** 0.0
3552 H 21.247052 43.186596 5.872383 H 0.0 **** 0.0
3553 O 8.090013 34.235186 26.037044 O 0.0 **** 0.0
3554 H 7.670444 35.021815 25.584011 H 0.0 **** 0.0
3555 H 7.423974 33.808739 26.649088 H 0.0 **** 0.0
3556 O 41.600163 42.134325 41.300567 O 0.0 **** 0.0
3557 H 41.342954 41.167984 41.29103 H 0.0 **** 0.0
3558 H 40.774737 42.698856 41.306817 H 0.0 **** 0.0
3559 O 22.423429 27.873394 23.086142 O 0.0 **** 0.0
3560 H 22.018028 27.604584 22.212383 H 0.0 **** 0.0
3561 H 22.982886 28.692035 22.956151 H 0.0 **** 0.0
3562 O 1.967697 27.175911 7.741279 O 0.0 **** 0.0
3563 H 2.927645 26.900524 7.68908 H 0.0 **** 0.0
3564 H 1.890802 28.154408 7.549727 H 0.0 **** 0.0
3565 O 3.563507 9.122281 7.645435 O 0.0 **** 0.0
3566 H 4.359337 9.650603 7.941397 H 0.0 **** 0.0
3567 H 3.598616 8.993782 6.654315 H 0.0 **** 0.0
3568 O 16.555578 20.928032 39.099758 O 0.0 **** 0.0
3569 H 16.958968 21.100907 39.998342 H 0.0 **** 0.0
3570 H 16.277654 21.79536 38.686765 H 0.0 **** 0.0
3571 O 47.746536 22.27267 46.177744 O 0.0 **** 0.0
3572 H 46.997422 21.611117 46.212942 H 0.0 **** 0.0
3573 H 47.578477 22.927556 45.440897 H 0.0 **** 0.0
3574 O 2.050983 23.043308 34.768887 O 0.0 **** 0.0
3575 H 3.011451 22.76874 34.722235 H 0.0 **** 0.0
3576 H 1.837579 23.641841 33.996695 H 0.0 **** 0.0
3577 O 29.590869 11.470492 34.065425 O 0.0 **** 0.0
3578 H 29.366447 11.70589 33.119759 H 0.0 **** 0.0
3579 H 30.454808 10.96732 34.087576 H 0.0 **** 0.0
3580 O 0.394466 39.327617 15.080145 O 0.0 **** 0.0
3581 H 1.25748 39.228081 15.575487 H 0.0 **** 0.0
3582 H -0.001723 38.424197 14.916042 H 0.0 **** 0.0
3583 O 8.34855 6.421288 8.134316 O 0.0 **** 0.0
3584 H 9.195442 6.916776 8.327526 H 0.0 **** 0.0
3585 H 7.597334 7.073161 8.0304 H 0.0 **** 0.0
3586 O 37.960044 25.349834 2.212116 O 0.0 **** 0.0
3587 H 36.973933 25.230824 2.095995 H 0.0 **** 0.0
3588 H 38.401005 24.453362 2.256332 H 0.0 **** 0.0
3589 O 47.426875 32.400037 32.313433 O 0.0 **** 0.0
3590 H 48.000347 33.20996 32.436787 H 0.0 **** 0.0
3591 H 47.997245 31.579356 32.348421 H 0.0 **** 0.0
3592 O 32.397528 1.431911 32.7208 O 0.0 **** 0.0
3593 H 32.793491 1.758182 33.579185 H 0.0 **** 0.0
3594 H 32.133244 2.214441 32.157007 H 0.0 **** 0.0
3595 O 23.55517 28.497381 35.455547 O 0.0 **** 0.0
3596 H 23.588095 27.499841 35.393148 H 0.0 **** 0.0
3597 H 22.614026 28.789806 35.625244 H 0.0 **** 0.0
3598 O 7.390169 26.440426 40.773458 O 0.0 **** 0.0
3599 H 7.825795 27.236899 41.192891 H 0.0 **** 0.0
3600 H 6.733162 26.744606 40.083617 H 0.0 **** 0.0
3601 O 7.451453 11.075582 33.237294 O 0.0 **** 0.0
3602 H 7.211767 12.044227 33.171411 H 0.0 **** 0.0
3603 H 6.622156 10.536276 33.383856 H 0.0 **** 0.0
3604 O 22.865443 42.584279 37.109395 O 0.0 **** 0.0
3605 H 23.446054 43.07977 37.755492 H 0.0 **** 0.0
3606 H 22.007072 43.081677 36.983471 H 0.0 **** 0.0
3607 O 32.738347 18.951157 26.395838 O 0.0 **** 0.0
3608 H 32.620953 19.299134 27.325996 H 0.0 **** 0.0
3609 H 32.946282 17.973561 26.429499 H 0.0 **** 0.0
3610 O 36.791593 31.183516 26.506489 O 0.0 **** 0.0
3611 H 37.507648 30.800471 27.090102 H 0.0 **** 0.0
3612 H 35.967684 31.342354 27.050556 H 0.0 **** 0.0
3613 O 33.227599 26.5098 14.50917 O 0.0 **** 0.0
3614 H 33.566595 26.300399 13.591948 H 0.0 **** 0.0
3615 H 32.807787 25.692509 14.903957 H 0.0 **** 0.0
3616 O 0.671296 24.16986 11.927825 O 0.0 **** 0.0
3617 H 0.842435 24.145949 12.912814 H 0.0 **** 0.0
3618 H 1.107016 23.380853 11.494606 H 0.0 **** 0.0
3619 O 3.195108 15.336889 38.938799 O 0.0 **** 0.0
3620 H 3.759672 14.57778 39.262965 H 0.0 **** 0.0
3621 H 3.092852 16.011921 39.66951 H 0.0 **** 0.0
3622 O 21.52369 25.55992 35.572074 O 0.0 **** 0.0
3623 H 20.985403 24.850363 35.117279 H 0.0 **** 0.0
3624 H 22.493977 25.420299 35.37431 H 0.0 **** 0.0
3625 O 29.877697 39.587861 4.891581 O 0.0 **** 0.0
3626 H 29.007002 39.927011 5.247855 H 0.0 **** 0.0
3627 H 30.631628 40.044507 5.363944 H 0.0 **** 0.0
3628 O 36.189153 22.991099 38.090049 O 0.0 **** 0.0
3629 H 37.028517 23.349429 38.498865 H 0.0 **** 0.0
3630 H 35.461932 23.672832 38.170371 H 0.0 **** 0.0
3631 O 33.35802 33.513975 19.801864 O 0.0 **** 0.0
3632 H 32.801777 33.907488 20.53385 H 0.0 **** 0.0
3633 H 33.186199 34.00878 18.949979 H 0.0 **** 0.0
3634 O 11.442037 45.38725 34.15666 O 0.0 **** 0.0
3635 H 11.55475 45.69 33.210245 H 0.0 **** 0.0
3636 H 11.505825 44.390088 34.197425 H 0.0 **** 0.0
3637 O 41.249022 45.959653 11.032518 O 0.0 **** 0.0
3638 H 42.167238 45.887341 10.643014 H 0.0 **** 0.0
3639 H 41.273177 45.689948 11.99519 H 0.0 **** 0.0
3640 O 7.906663 42.707434 39.682363 O 0.0 **** 0.0
3641 H 7.06432 42.396365 40.122542 H 0.0 **** 0.0
3642 H 8.16089 42.066045 38.958449 H 0.0 **** 0.0
3643 O 14.427117 23.662662 8.306768 O 0.0 **** 0.0
3644 H 14.538707 22.670915 8.370402 H 0.0 **** 0.0
3645 H 15.29931 24.08053 8.05235 H 0.0 **** 0.0
3646 O 17.338011 38.496614 35.755884 O 0.0 **** 0.0
3647 H 16.413685 38.164487 35.943973 H 0.0 **** 0.0
3648 H 18.004222 37.807472 36.04103 H 0.0 **** 0.0
3649 O 28.115174 27.337584 28.251408 O 0.0 **** 0.0
3650 H 27.59352 27.468784 29.094454 H 0.0 **** 0.0
3651 H 27.871056 28.050582 27.594063 H 0.0 **** 0.0
3652 O 1.937077 41.984939 7.636937 O 0.0 **** 0.0
3653 H 2.505382 42.675283 7.189144 H 0.0 **** 0.0
3654 H 2.298623 41.074392 7.436307 H 0.0 **** 0.0
3655 O 29.369159 23.32829 11.983207 O 0.0 **** 0.0
3656 H 29.527093 24.247851 12.343106 H 0.0 **** 0.0
3657 H 30.228885 22.954432 11.63512 H 0.0 **** 0.0
3658 O 4.722679 41.612763 25.70951 O 0.0 **** 0.0
3659 H 4.588313 40.622956 25.757378 H 0.0 **** 0.0
3660 H 3.842975 42.061242 25.551233 H 0.0 **** 0.0
3661 O 18.831295 31.171075 13.294717 O 0.0 **** 0.0
3662 H 18.013676 31.232456 12.722184 H 0.0 **** 0.0
3663 H 18.847733 31.938545 13.935641 H 0.0 **** 0.0
3664 O 6.347934 31.377115 7.516338 O 0.0 **** 0.0
3665 H 5.683059 30.65892 7.310912 H 0.0 **** 0.0
3666 H 7.002354 31.4506 6.763744 H 0.0 **** 0.0
3667 O 10.597659 3.043258 8.406906 O 0.0 **** 0.0
3668 H 11.523339 3.421575 8.399371 H 0.0 **** 0.0
3669 H 10.645895 2.044929 8.439712 H 0.0 **** 0.0
3670 O 1.717626 36.091875 33.223881 O 0.0 **** 0.0
3671 H 1.556699 37.0122 32.867277 H 0.0 **** 0.0
3672 H 1.554495 36.083499 34.210482 H 0.0 **** 0.0
3673 O 17.185689 1.356032 26.519062 O 0.0 **** 0.0
3674 H 18.031482 0.832488 26.622007 H 0.0 **** 0.0
3675 H 16.478999 0.967188 27.110207 H 0.0 **** 0.0
3676 O 17.340501 30.39644 16.695719 O 0.0 **** 0.0
3677 H 16.687625 31.042805 16.300712 H 0.0 **** 0.0
3678 H 18.240337 30.828177 16.758653 H 0.0 **** 0.0
3679 O 7.325655 41.680208 33.753429 O 0.0 **** 0.0
3680 H 6.640178 40.954125 33.808097 H 0.0 **** 0.0
3681 H 7.94173 41.499866 32.986623 H 0.0 **** 0.0
3682 O 27.577953 40.531873 13.659557 O 0.0 **** 0.0
3683 H 26.746268 41.071033 13.52663 H 0.0 **** 0.0
3684 H 27.353094 39.558099 13.623997 H 0.0 **** 0.0
3685 O 7.245989 17.203914 33.687854 O 0.0 **** 0.0
3686 H 8.180831 17.367049 34.003321 H 0.0 **** 0.0
3687 H 7.07972 17.728475 32.852837 H 0.0 **** 0.0
3688 O 13.893397 37.694365 32.044188 O 0.0 **** 0.0
3689 H 14.666017 37.655608 31.410454 H 0.0 **** 0.0
3690 H 13.158554 37.103945 31.71031 H 0.0 **** 0.0
3691 O 42.367326 4.064894 30.317688 O 0.0 **** 0.0
3692 H 41.548433 4.502761 29.946541 H 0.0 **** 0.0
3693 H 43.072433 4.756244 30.475557 H 0.0 **** 0.0
3694 O 23.726842 22.083927 7.403777 O 0.0 **** 0.0
3695 H 24.078258 22.539853 8.221518 H 0.0 **** 0.0
3696 H 24.466324 21.576505 6.961338 H 0.0 **** 0.0
3697 O 14.755297 26.392743 9.163699 O 0.0 **** 0.0
3698 H 14.806281 26.335582 8.166605 H 0.0 **** 0.0
3699 H 15.397454 25.741482 9.568121 H 0.0 **** 0.0
3700 O 38.191961 14.032535 16.285045 O 0.0 **** 0.0
3701 H 37.195445 13.94952 16.27375 H 0.0 **** 0.0
3702 H 38.459405 14.895238 15.855766 H 0.0 **** 0.0
3703 O 7.973698 31.174396 30.096033 O 0.0 **** 0.0
3704 H 7.020398 31.161014 30.397865 H 0.0 **** 0.0
3705 H 8.289538 32.121035 30.031352 H 0.0 **** 0.0
3706 O 34.177894 42.529918 26.899315 O 0.0 **** 0.0
3707 H 33.99749 41.931976 27.680328 H 0.0 **** 0.0
3708 H 34.314045 41.974583 26.078871 H 0.0 **** 0.0
3709 O 6.254956 40.17781 31.352966 O 0.0 **** 0.0
3710 H 6.551802 39.542792 32.066196 H 0.0 **** 0.0
3711 H 6.655664 39.90689 30.477695 H 0.0 **** 0.0
3712 O 33.877263 21.828435 19.994078 O 0.0 **** 0.0
3713 H 34.234884 22.76049 20.052768 H 0.0 **** 0.0
3714 H 34.008182 21.479049 19.066257 H 0.0 **** 0.0
3715 O 28.360627 39.755369 2.72359 O 0.0 **** 0.0
3716 H 28.035873 40.464777 3.349159 H 0.0 **** 0.0
3717 H 28.388756 40.119409 1.792598 H 0.0 **** 0.0
3718 O 35.568617 21.827424 28.047004 O 0.0 **** 0.0
3719 H 36.258595 21.800787 27.32362 H 0.0 **** 0.0
3720 H 35.482114 22.762513 28.390789 H 0.0 **** 0.0
3721 O 20.523247 8.279532 2.453544 O 0.0 **** 0.0
3722 H 20.776804 8.873075 1.689686 H 0.0 **** 0.0
3723 H 21.335216 7.800506 2.787166 H 0.0 **** 0.0
3724 O 32.484924 3.810088 14.106473 O 0.0 **** 0.0
3725 H 33.137749 3.569388 13.388179 H 0.0 **** 0.0
3726 H 32.897895 3.642983 15.001791 H 0.0 **** 0.0
3727 O 18.073302 42.858362 2.376911 O 0.0 **** 0.0
3728 H 18.472317 42.009528 2.723799 H 0.0 **** 0.0
3729 H 17.168638 42.669583 1.994801 H 0.0 **** 0.0
3730 O 19.159109 18.126712 2.584688 O 0.0 **** 0.0
3731 H 19.915228 17.580007 2.944493 H 0.0 **** 0.0
3732 H 18.354262 17.545143 2.466101 H 0.0 **** 0.0
3733 O 0.978269 19.977013 34.681365 O 0.0 **** 0.0
3734 H 1.486222 20.829303 34.556272 H 0.0 **** 0.0
3735 H 0.000588 20.177804 34.743705 H 0.0 **** 0.0
3736 O 17.176545 47.19246 41.168858 O 0.0 **** 0.0
3737 H 17.766176 48.000086 41.157073 H 0.0 **** 0.0
3738 H 16.22799 47.474417 41.3131 H 0.0 **** 0.0
3739 O 42.343118 23.988303 21.125176 O 0.0 **** 0.0
3740 H 42.995418 24.746305 21.126342 H 0.0 **** 0.0
3741 H 41.411063 24.350703 21.123562 H 0.0 **** 0.0
3742 O 16.685461 12.452225 5.764805 O 0.0 **** 0.0
3743 H 17.395199 11.907234 5.318351 H 0.0 **** 0.0
3744 H 15.80031 11.999579 5.656718 H 0.0 **** 0.0
3745 O 47.646501 42.572168 14.49063 O 0.0 **** 0.0
3746 H 46.780854 42.220027 14.8466 H 0.0 **** 0.0
3747 H 47.48446 43.437568 14.016406 H 0.0 **** 0.0
3748 O 12.09765 17.91266 0.933205 O 0.0 **** 0.0
3749 H 12.198805 18.905992 0.877336 H 0.0 **** 0.0
3750 H 12.997604 17.491944 1.047856 H 0.0 **** 0.0
3751 O 1.872723 34.233229 22.177402 O 0.0 **** 0.0
3752 H 1.703273 34.364544 21.200618 H 0.0 **** 0.0
3753 H 2.487785 33.455491 22.307348 H 0.0 **** 0.0
3754 O 7.00106 19.093136 17.872315 O 0.0 **** 0.0
3755 H 7.928487 19.34787 17.598357 H 0.0 **** 0.0
3756 H 7.022177 18.693562 18.788808 H 0.0 **** 0.0
3757 O 43.388224 16.766249 12.46594 O 0.0 **** 0.0
3758 H 43.702794 17.000548 13.385839 H 0.0 **** 0.0
3759 H 42.424602 17.015687 12.369627 H 0.0 **** 0.0
3760 O 10.124153 23.336716 26.492858 O 0.0 **** 0.0
3761 H 10.330508 22.385043 26.265265 H 0.0 **** 0.0
3762 H 10.846451 23.70328 27.079356 H 0.0 **** 0.0
3763 O 35.993669 42.628035 16.602873 O 0.0 **** 0.0
3764 H 35.118814 42.149668 16.679402 H 0.0 **** 0.0
3765 H 36.735249 41.959496 16.546499 H 0.0 **** 0.0
3766 O 40.155688 27.145588 11.395186 O 0.0 **** 0.0
3767 H 41.067751 26.770266 11.560526 H 0.0 **** 0.0
3768 H 39.914118 27.022499 10.432608 H 0.0 **** 0.0
3769 O 35.506298 11.790324 0.240024 O 0.0 **** 0.0
3770 H 35.190729 10.863357 0.037018 H 0.0 **** 0.0
3771 H 34.797971 12.447473 -0.017835 H 0.0 **** 0.0
3772 O 36.499866 22.011759 43.095086 O 0.0 **** 0.0
3773 H 36.877727 21.885278 44.012303 H 0.0 **** 0.0
3774 H 37.233328 22.265928 42.464614 H 0.0 **** 0.0
3775 O 30.042033 36.553839 20.415862 O 0.0 **** 0.0
3776 H 30.741204 37.213748 20.140649 H 0.0 **** 0.0
3777 H 30.362773 35.627171 20.219711 H 0.0 **** 0.0
3778 O 28.025188 2.811997 41.375302 O 0.0 **** 0.0
3779 H 27.060231 2.57343 41.484876 H 0.0 **** 0.0
3780 H 28.420425 2.269775 40.633786 H 0.0 **** 0.0
3781 O 4.78048 43.426621 0.456695 O 0.0 **** 0.0
3782 H 5.597404 42.866468 0.319121 H 0.0 **** 0.0
3783 H 3.965503 42.852526 0.377383 H 0.0 **** 0.0
3784 O 24.929462 14.884092 2.716478 O 0.0 **** 0.0
3785 H 24.63636 15.798155 2.996911 H 0.0 **** 0.0
3786 H 24.2042 14.225408 2.916959 H 0.0 **** 0.0
3787 O 34.050086 18.387324 18.23913 O 0.0 **** 0.0
3788 H 33.556733 18.215847 17.386334 H 0.0 **** 0.0
3789 H 34.668872 19.163207 18.115955 H 0.0 **** 0.0
3790 O 5.026171 1.945012 14.079599 O 0.0 **** 0.0
3791 H 5.355018 1.054387 14.39378 H 0.0 **** 0.0
3792 H 4.771356 1.88467 13.114461 H 0.0 **** 0.0
3793 O 36.18756 16.212353 39.024015 O 0.0 **** 0.0
3794 H 36.948667 15.563678 39.023344 H 0.0 **** 0.0
3795 H 36.542917 17.143 39.111656 H 0.0 **** 0.0
3796 O 20.409446 10.232682 3.459024 O 0.0 **** 0.0
3797 H 21.275373 9.91547 3.845817 H 0.0 **** 0.0
3798 H 20.592499 10.858958 2.701177 H 0.0 **** 0.0
3799 O 33.000402 25.306345 35.68283 O 0.0 **** 0.0
3800 H 33.112127 24.347283 35.422483 H 0.0 **** 0.0
3801 H 33.844728 25.80529 35.487305 H 0.0 **** 0.0
3802 O 1.963997 2.723638 34.9704 O 0.0 **** 0.0
3803 H 1.356478 2.100914 34.477249 H 0.0 **** 0.0
3804 H 1.443159 3.516674 35.286446 H 0.0 **** 0.0
3805 O 8.714637 34.527176 35.704295 O 0.0 **** 0.0
3806 H 8.956447 33.653484 35.282095 H 0.0 **** 0.0
3807 H 9.534147 34.946836 36.094617 H 0.0 **** 0.0
3808 O 12.251016 20.104209 39.338247 O 0.0 **** 0.0
3809 H 12.689353 20.748876 39.964609 H 0.0 **** 0.0
3810 H 11.575229 19.561766 39.837376 H 0.0 **** 0.0
3811 O 42.096138 4.489615 5.362864 O 0.0 **** 0.0
3812 H 41.458534 3.722894 5.438121 H 0.0 **** 0.0
3813 H 41.596486 5.313558 5.095417 H 0.0 **** 0.0
3814 O 37.639838 19.639431 4.10136 O 0.0 **** 0.0
3815 H 36.780343 19.879415 3.649986 H 0.0 **** 0.0
3816 H 38.180171 20.467489 4.251102 H 0.0 **** 0.0
3817 O 3.74108 38.987695 13.792134 O 0.0 **** 0.0
3818 H 4.175193 38.145094 13.473333 H 0.0 **** 0.0
3819 H 3.68297 38.975597 14.790402 H 0.0 **** 0.0
3820 O 3.013723 33.897347 2.061771 O 0.0 **** 0.0
3821 H 2.902842 32.927172 1.846065 H 0.0 **** 0.0
3822 H 2.210349 34.402732 1.746749 H 0.0 **** 0.0
3823 O 5.12138 42.795513 28.477477 O 0.0 **** 0.0
3824 H 4.481346 42.986982 27.733327 H 0.0 **** 0.0
3825 H 5.014282 41.846232 28.773211 H 0.0 **** 0.0
3826 O 30.35005 7.768928 37.490169 O 0.0 **** 0.0
3827 H 29.517324 8.252367 37.220137 H 0.0 **** 0.0
3828 H 30.926342 7.623023 36.686015 H 0.0 **** 0.0
3829 O 18.369061 43.248653 23.973116 O 0.0 **** 0.0
3830 H 17.865145 42.384892 23.966236 H 0.0 **** 0.0
3831 H 19.305407 43.085762 24.284219 H 0.0 **** 0.0
3832 O 32.366475 26.467472 0.460042 O 0.0 **** 0.0
3833 H 31.611126 26.949304 0.904282 H 0.0 **** 0.0
3834 H 32.046413 25.580112 0.128054 H 0.0 **** 0.0
3835 O 33.351771 38.497892 1.12892 O 0.0 **** 0.0
3836 H 34.309642 38.603199 1.396231 H 0.0 **** 0.0
3837 H 32.805461 38.26206 1.932657 H 0.0 **** 0.0
3838 O 23.525421 39.241446 36.41626 O 0.0 **** 0.0
3839 H 22.982786 38.402086 36.38331 H 0.0 **** 0.0
3840 H 24.461968 39.022302 36.689972 H 0.0 **** 0.0
3841 O 29.379797 15.419248 38.022214 O 0.0 **** 0.0
3842 H 28.454692 15.764834 37.864689 H 0.0 **** 0.0
3843 H 29.36656 14.763531 38.777147 H 0.0 **** 0.0
3844 O 21.531432 13.493672 37.412875 O 0.0 **** 0.0
3845 H 20.955548 14.270197 37.668669 H 0.0 **** 0.0
3846 H 22.032695 13.171647 38.216054 H 0.0 **** 0.0
3847 O 41.474878 31.709622 4.704009 O 0.0 **** 0.0
3848 H 40.491599 31.709534 4.886289 H 0.0 **** 0.0
3849 H 41.835133 30.783786 4.818493 H 0.0 **** 0.0
3850 O 16.06396 44.749544 42.117693 O 0.0 **** 0.0
3851 H 15.202371 45.242273 41.995442 H 0.0 **** 0.0
3852 H 16.36798 44.386243 41.236985 H 0.0 **** 0.0
3853 O 40.018694 6.455909 6.95086 O 0.0 **** 0.0
3854 H 39.91208 6.299237 7.932772 H 0.0 **** 0.0
3855 H 40.979318 6.643411 6.745659 H 0.0 **** 0.0
3856 O 23.625541 24.341764 5.787173 O 0.0 **** 0.0
3857 H 24.286578 24.258278 6.53291 H 0.0 **** 0.0
3858 H 24.09913 24.620511 4.951663 H 0.0 **** 0.0
3859 O 34.928403 8.88593 37.585737 O 0.0 **** 0.0
3860 H 34.585092 7.947282 37.619511 H 0.0 **** 0.0
3861 H 35.540618 9.044948 38.360314 H 0.0 **** 0.0
3862 O 5.67137 8.518513 22.783358 O 0.0 **** 0.0
3863 H 6.519492 8.025179 22.590035 H 0.0 **** 0.0
3864 H 5.291882 8.201111 23.652443 H 0.0 **** 0.0
3865 O 29.510608 46.128846 4.48816 O 0.0 **** 0.0
3866 H 30.486252 46.275423 4.651553 H 0.0 **** 0.0
3867 H 29.161839 46.847374 3.886378 H 0.0 **** 0.0
3868 O 5.657856 43.096681 34.487785 O 0.0 **** 0.0
3869 H 4.714513 43.414805 34.582456 H 0.0 **** 0.0
3870 H 5.994151 42.78209 35.37548 H 0.0 **** 0.0
3871 O 8.474293 26.598216 35.126174 O 0.0 **** 0.0
3872 H 8.143919 27.540871 35.078038 H 0.0 **** 0.0
3873 H 9.474059 26.596223 35.14916 H 0.0 **** 0.0
3874 O 14.789687 17.35015 33.221148 O 0.0 **** 0.0
3875 H 14.985864 16.376046 33.333845 H 0.0 **** 0.0
3876 H 14.411399 17.510629 32.309442 H 0.0 **** 0.0
3877 O 6.118083 38.534462 38.539262 O 0.0 **** 0.0
3878 H 5.544926 37.79896 38.900635 H 0.0 **** 0.0
3879 H 5.751238 39.417431 38.832268 H 0.0 **** 0.0
3880 O 42.558547 15.440213 47.990536 O 0.0 **** 0.0
3881 H 41.898866 14.688625 47.991321 H 0.0 **** 0.0
3882 H 43.486971 15.068769 48.001527 H 0.0 **** 0.0
3883 O 14.908833 36.573125 19.130181 O 0.0 **** 0.0
3884 H 15.247227 37.299075 18.531391 H 0.0 **** 0.0
3885 H 15.683294 36.087788 19.536039 H 0.0 **** 0.0
3886 O 48.002265 11.72514 33.7443 O 0.0 **** 0.0
3887 H 47.154649 12.22444 33.92405 H 0.0 **** 0.0
3888 H 47.834512 10.742818 33.827761 H 0.0 **** 0.0
3889 O 37.939643 9.860764 4.112107 O 0.0 **** 0.0
3890 H 37.480184 8.974076 4.059708 H 0.0 **** 0.0
3891 H 38.168788 10.172395 3.189913 H 0.0 **** 0.0
3892 O 21.023136 46.645173 1.77133 O 0.0 **** 0.0
3893 H 20.463021 45.900778 2.134939 H 0.0 **** 0.0
3894 H 20.428713 47.369542 1.422026 H 0.0 **** 0.0
3895 O 11.240159 30.927127 15.762185 O 0.0 **** 0.0
3896 H 11.070559 29.941621 15.753387 H 0.0 **** 0.0
3897 H 10.596733 31.370469 16.386295 H 0.0 **** 0.0
3898 O 17.510257 22.740075 30.336175 O 0.0 **** 0.0
3899 H 17.914561 22.217707 31.086997 H 0.0 **** 0.0
3900 H 18.059016 23.558653 30.166297 H 0.0 **** 0.0
3901 O 38.095154 17.798239 12.19492 O 0.0 **** 0.0
3902 H 38.99609 17.95685 11.790915 H 0.0 **** 0.0
3903 H 37.423247 17.660045 11.467248 H 0.0 **** 0.0
3904 O 13.206122 14.948461 47.707715 O 0.0 **** 0.0
3905 H 13.382552 14.774194 46.738919 H 0.0 **** 0.0
3906 H 13.721785 15.753601 48.000811 H 0.0 **** 0.0
3907 O 9.305435 6.170532 10.401781 O 0.0 **** 0.0
3908 H 8.308759 6.243765 10.438352 H 0.0 **** 0.0
3909 H 9.651805 5.886967 11.296031 H 0.0 **** 0.0
3910 O 36.790684 19.546416 40.746903 O 0.0 **** 0.0
3911 H 37.511415 19.032281 41.211956 H 0.0 **** 0.0
3912 H 36.092988 18.913292 40.411584 H 0.0 **** 0.0
3913 O 25.658528 14.475231 27.77094 O 0.0 **** 0.0
3914 H 25.919596 15.184789 28.425487 H 0.0 **** 0.0
3915 H 24.780187 14.711902 27.355527 H 0.0 **** 0.0
3916 O 11.720788 20.830143 6.310608 O 0.0 **** 0.0
3917 H 12.313824 20.530407 7.057956 H 0.0 **** 0.0
3918 H 11.007874 20.146097 6.15602 H 0.0 **** 0.0
3919 O 30.819899 6.871272 47.174053 O 0.0 **** 0.0
3920 H 29.961328 6.719101 46.684396 H 0.0 **** 0.0
3921 H 30.682384 7.566277 47.879829 H 0.0 **** 0.0
3922 O 19.071518 42.34852 12.797321 O 0.0 **** 0.0
3923 H 18.726483 41.615457 13.383523 H 0.0 **** 0.0
3924 H 18.344401 43.015624 12.635035 H 0.0 **** 0.0
3925 O 9.360435 42.831705 10.394233 O 0.0 **** 0.0
3926 H 8.490874 43.26237 10.636009 H 0.0 **** 0.0
3927 H 9.237846 41.840693 10.34011 H 0.0 **** 0.0
3928 O 3.022807 15.612958 42.568419 O 0.0 **** 0.0
3929 H 2.386664 15.759157 41.810783 H 0.0 **** 0.0
3930 H 2.754294 16.184282 43.344017 H 0.0 **** 0.0
3931 O 38.693591 2.276886 25.184073 O 0.0 **** 0.0
3932 H 38.848644 3.015468 24.527934 H 0.0 **** 0.0
3933 H 39.533759 1.74541 25.292302 H 0.0 **** 0.0
3934 O 27.727056 23.831853 3.194906 O 0.0 **** 0.0
3935 H 28.621234 23.693826 2.768928 H 0.0 **** 0.0
3936 H 27.240757 22.959152 3.239276 H 0.0 **** 0.0
3937 O 3.970318 18.080827 13.548916 O 0.0 **** 0.0
3938 H 4.044256 18.111594 12.552096 H 0.0 **** 0.0
3939 H 3.961176 19.012826 13.911349 H 0.0 **** 0.0
3940 O 28.413354 23.723941 5.291351 O 0.0 **** 0.0
3941 H 27.683091 23.226633 5.759819 H 0.0 **** 0.0
3942 H 29.299301 23.344518 5.558183 H 0.0 **** 0.0
3943 O 44.866318 2.002838 14.647946 O 0.0 **** 0.0
3944 H 45.594654 1.825047 15.309746 H 0.0 **** 0.0
3945 H 44.112715 2.47865 15.101541 H 0.0 **** 0.0
3946 O 17.572102 23.147708 14.644933 O 0.0 **** 0.0
3947 H 16.951247 22.384018 14.46779 H 0.0 **** 0.0
3948 H 18.476359 22.934866 14.27469 H 0.0 **** 0.0
3949 O 4.016874 24.448328 45.823074 O 0.0 **** 0.0
3950 H 4.620434 24.439519 45.025766 H 0.0 **** 0.0
3951 H 4.009788 23.542032 46.245732 H 0.0 **** 0.0
3952 O 26.752729 22.597648 26.868343 O 0.0 **** 0.0
3953 H 27.335787 22.847911 27.641308 H 0.0 **** 0.0
3954 H 26.666297 21.602318 26.824626 H 0.0 **** 0.0
3955 O 26.818165 32.727127 1.738908 O 0.0 **** 0.0
3956 H 27.154561 33.45734 1.144191 H 0.0 **** 0.0
3957 H 26.441557 33.125421 2.575324 H 0.0 **** 0.0
3958 O 0.488985 32.904052 6.709275 O 0.0 **** 0.0
3959 H 0.747378 33.441671 7.511935 H 0.0 **** 0.0
3960 H 1.045213 32.073864 6.671049 H 0.0 **** 0.0
3961 O 47.137538 5.051431 0.830611 O 0.0 **** 0.0
3962 H 48.000881 5.090538 1.333774 H 0.0 **** 0.0
3963 H 47.088763 5.819639 0.192221 H 0.0 **** 0.0
3964 O 16.266349 10.679859 7.863663 O 0.0 **** 0.0
3965 H 16.880341 9.890539 7.8708 H 0.0 **** 0.0
3966 H 15.842636 10.780642 8.76387 H 0.0 **** 0.0
3967 O 34.774963 16.050387 12.699623 O 0.0 **** 0.0
3968 H 35.463732 15.621925 12.114746 H 0.0 **** 0.0
3969 H 33.873587 15.956369 12.27684 H 0.0 **** 0.0
3970 O 45.855182 12.183051 27.273164 O 0.0 **** 0.0
3971 H 45.636513 12.38942 26.319403 H 0.0 **** 0.0
3972 H 45.989208 11.197673 27.378664 H 0.0 **** 0.0
3973 O 18.896648 14.379201 18.864865 O 0.0 **** 0.0
3974 H 19.777022 13.911499 18.943985 H 0.0 **** 0.0
3975 H 19.047966 15.365546 18.799369 H 0.0 **** 0.0
3976 O 19.754218 42.448705 30.412407 O 0.0 **** 0.0
3977 H 20.324248 43.164625 30.815628 H 0.0 **** 0.0
3978 H 18.88764 42.844451 30.108284 H 0.0 **** 0.0
3979 O 8.35026 38.437113 2.613213 O 0.0 **** 0.0
3980 H 7.52424 38.033683 3.006911 H 0.0 **** 0.0
3981 H 8.385772 39.410711 2.838845 H 0.0 **** 0.0
3982 O 9.146868 39.17868 15.514481 O 0.0 **** 0.0
3983 H 8.548515 39.97781 15.573036 H 0.0 **** 0.0
3984 H 8.610392 38.348721 15.667529 H 0.0 **** 0.0
3985 O 15.22937 23.244628 41.217947 O 0.0 **** 0.0
3986 H 16.21903 23.38814 41.224243 H 0.0 **** 0.0
3987 H 15.025057 22.348545 40.823797 H 0.0 **** 0.0
3988 O 48.028205 38.75704 24.40264 O 0.0 **** 0.0
3989 H 47.476774 37.922835 24.41204 H 0.0 **** 0.0
3990 H 47.515579 39.490385 23.956004 H 0.0 **** 0.0
3991 O 5.279467 18.638968 44.001639 O 0.0 **** 0.0
3992 H 5.18322 18.013523 44.775989 H 0.0 **** 0.0
3993 H 6.061254 18.360639 43.443602 H 0.0 **** 0.0
3994 O 0.07471 11.20678 28.242653 O 0.0 **** 0.0
3995 H -1.7e-05 10.484083 27.555493 H 0.0 **** 0.0
3996 H 0.994437 11.199575 28.635227 H 0.0 **** 0.0
3997 O 21.566693 35.454438 23.548302 O 0.0 **** 0.0
3998 H 21.177852 34.549221 23.376696 H 0.0 **** 0.0
3999 H 20.903561 36.012998 24.046629 H 0.0 **** 0.0
4000 O 11.263326 24.7835 41.054305 O 0.0 **** 0.0
4001 H 10.586938 24.334707 40.470227 H 0.0 **** 0.0
4002 H 10.795519 25.365927 41.719134 H 0.0 **** 0.0
4003 O 16.845444 22.20127 9.330402 O 0.0 **** 0.0
4004 H 17.101235 22.119409 8.367109 H 0.0 **** 0.0
4005 H 16.130752 21.534949 9.54323 H 0.0 **** 0.0
4006 O 9.544962 30.355055 27.018506 O 0.0 **** 0.0
4007 H 9.18913 31.090467 27.595235 H 0.0 **** 0.0
4008 H 8.79118 29.766625 26.725887 H 0.0 **** 0.0
4009 O 47.655477 27.462902 45.860723 O 0.0 **** 0.0
4010 H 47.981786 28.367068 45.584914 H 0.0 **** 0.0
4011 H 46.78343 27.271578 45.410178 H 0.0 **** 0.0
4012 O 3.793515 43.93125 41.839023 O 0.0 **** 0.0
4013 H 3.335501 43.739526 40.970963 H 0.0 **** 0.0
4014 H 4.713976 44.279015 41.660489 H 0.0 **** 0.0
4015 O 17.888529 32.793695 15.759048 O 0.0 **** 0.0
4016 H 17.601128 33.598954 15.240376 H 0.0 **** 0.0
4017 H 17.837698 32.992139 16.737874 H 0.0 **** 0.0
4018 O 35.222492 5.186855 42.983783 O 0.0 **** 0.0
4019 H 34.504889 5.48005 42.352003 H 0.0 **** 0.0
4020 H 35.413587 4.215342 42.843399 H 0.0 **** 0.0
4021 O 27.867467 24.283966 25.971316 O 0.0 **** 0.0
4022 H 28.48519 23.505178 25.861906 H 0.0 **** 0.0
4023 H 28.212896 24.884598 26.692414 H 0.0 **** 0.0
4024 O 37.175488 36.755949 24.650402 O 0.0 **** 0.0
4025 H 37.881418 37.429099 24.870847 H 0.0 **** 0.0
4026 H 37.595689 35.854587 24.545334 H 0.0 **** 0.0
4027 O 34.084014 16.171843 21.884755 O 0.0 **** 0.0
4028 H 34.37878 17.121036 21.995252 H 0.0 **** 0.0
4029 H 34.810533 15.55893 22.195514 H 0.0 **** 0.0
4030 O 44.286666 27.089546 32.973186 O 0.0 **** 0.0
4031 H 43.616066 27.818086 33.11315 H 0.0 **** 0.0
4032 H 44.031851 26.292368 33.520579 H 0.0 **** 0.0
4033 O 41.165199 7.513492 2.488916 O 0.0 **** 0.0
4034 H 40.733114 6.623396 2.634157 H 0.0 **** 0.0
4035 H 42.133293 7.383041 2.274812 H 0.0 **** 0.0
4036 O 4.78445 25.828329 12.36568 O 0.0 **** 0.0
4037 H 5.682478 25.971685 11.949679 H 0.0 **** 0.0
4038 H 4.708444 24.880783 12.676232 H 0.0 **** 0.0
4039 O 19.322904 8.384058 19.647371 O 0.0 **** 0.0
4040 H 18.644542 8.57481 20.35695 H 0.0 **** 0.0
4041 H 19.652898 7.445162 19.745556 H 0.0 **** 0.0
4042 O 32.023399 32.335668 36.322788 O 0.0 **** 0.0
4043 H 31.13213 31.975502 36.598439 H 0.0 **** 0.0
4044 H 32.747972 31.778192 36.728099 H 0.0 **** 0.0
4045 O 15.835542 19.342723 12.044441 O 0.0 **** 0.0
4046 H 16.624357 19.898464 11.781787 H 0.0 **** 0.0
4047 H 15.671489 18.645868 11.346199 H 0.0 **** 0.0
4048 O 18.619102 8.309422 13.032881 O 0.0 **** 0.0
4049 H 19.457208 7.76386 13.031329 H 0.0 **** 0.0
4050 H 18.853864 9.28105 13.003056 H 0.0 **** 0.0
4051 O 15.188791 41.467818 9.341447 O 0.0 **** 0.0
4052 H 16.050105 41.251244 8.881776 H 0.0 **** 0.0
4053 H 15.116665 42.457559 9.465027 H 0.0 **** 0.0
4054 O 37.680042 45.399315 24.23201 O 0.0 **** 0.0
4055 H 38.279945 44.916332 23.594117 H 0.0 **** 0.0
4056 H 36.844608 45.677661 23.758052 H 0.0 **** 0.0
4057 O 44.761032 10.478703 47.654148 O 0.0 **** 0.0
4058 H 45.667784 10.717616 48.001688 H 0.0 **** 0.0
4059 H 44.787088 10.437827 46.655292 H 0.0 **** 0.0
4060 O 24.209928 5.893267 15.899476 O 0.0 **** 0.0
4061 H 24.143822 5.882727 14.901687 H 0.0 **** 0.0
4062 H 24.856183 6.60173 16.183196 H 0.0 **** 0.0
4063 O 20.55599 12.175468 42.275856 O 0.0 **** 0.0
4064 H 20.520889 12.694761 43.129768 H 0.0 **** 0.0
4065 H 20.4069 12.793254 41.503731 H 0.0 **** 0.0
4066 O 11.169122 19.364777 45.722592 O 0.0 **** 0.0
4067 H 10.351467 19.244384 46.285628 H 0.0 **** 0.0
4068 H 11.767286 18.570526 45.82949 H 0.0 **** 0.0
4069 O 9.876959 47.266095 37.008432 O 0.0 **** 0.0
4070 H 9.02768 47.607015 36.605241 H 0.0 **** 0.0
4071 H 10.556077 47.999978 37.025089 H 0.0 **** 0.0
4072 O 4.471484 39.466685 8.286375 O 0.0 **** 0.0
4073 H 3.774899 38.804524 8.010012 H 0.0 **** 0.0
4074 H 4.035547 40.228784 8.765151 H 0.0 **** 0.0
4075 O 19.956129 26.95219 17.730987 O 0.0 **** 0.0
4076 H 20.858694 27.360606 17.867499 H 0.0 **** 0.0
4077 H 19.773574 26.866993 16.751458 H 0.0 **** 0.0
4078 O 7.318208 25.134317 30.585786 O 0.0 **** 0.0
4079 H 7.860398 24.938089 31.402846 H 0.0 **** 0.0
4080 H 6.788201 24.324208 30.33503 H 0.0 **** 0.0
4081 O 12.480045 44.127757 24.988343 O 0.0 **** 0.0
4082 H 11.738735 44.162711 24.318045 H 0.0 **** 0.0
4083 H 13.304111 43.762626 24.555147 H 0.0 **** 0.0
4084 O 38.030131 47.400341 8.997355 O 0.0 **** 0.0
4085 H 38.321844 46.468365 9.212731 H 0.0 **** 0.0
4086 H 38.832735 47.992565 8.925512 H 0.0 **** 0.0
4087 O 30.773593 3.642531 15.66366 O 0.0 **** 0.0
4088 H 30.70375 2.754532 15.209082 H 0.0 **** 0.0
4089 H 29.885311 3.889403 16.051052 H 0.0 **** 0.0
4090 O 38.132993 27.850248 28.214874 O 0.0 **** 0.0
4091 H 37.8209 26.925173 27.998317 H 0.0 **** 0.0
4092 H 39.091066 27.820557 28.499969 H 0.0 **** 0.0
4093 O 29.04511 47.114176 41.504632 O 0.0 **** 0.0
4094 H 30.038011 47.230648 41.530025 H 0.0 **** 0.0
4095 H 28.609917 47.998979 41.337917 H 0.0 **** 0.0
4096 O 25.066726 13.701382 42.798503 O 0.0 **** 0.0
4097 H 24.411696 13.25515 42.188687 H 0.0 **** 0.0
4098 H 24.864147 14.679483 42.846905 H 0.0 **** 0.0
4099 O 9.717495 16.13639 29.267041 O 0.0 **** 0.0
4100 H 9.9459 16.444639 30.190554 H 0.0 **** 0.0
4101 H 10.29253 15.354912 29.024779 H 0.0 **** 0.0
4102 O 32.35819 3.844965 26.357846 O 0.0 **** 0.0
4103 H 32.228607 2.927019 25.982818 H 0.0 **** 0.0
4104 H 32.981827 3.801117 27.138369 H 0.0 **** 0.0
4105 O 15.188855 40.961162 17.770829 O 0.0 **** 0.0
4106 H 15.722382 41.772515 17.531836 H 0.0 **** 0.0
4107 H 14.351707 40.939866 17.224209 H 0.0 **** 0.0
4108 O 23.217362 44.842299 24.471365 O 0.0 **** 0.0
4109 H 22.623318 44.186357 24.005623 H 0.0 **** 0.0
4110 H 23.55639 45.512309 23.810904 H 0.0 **** 0.0
4111 O 19.952092 25.987722 27.354672 O 0.0 **** 0.0
4112 H 19.303057 26.419845 27.98084 H 0.0 **** 0.0
4113 H 19.593369 25.101178 27.062404 H 0.0 **** 0.0
4114 O 32.623069 16.429614 0.939086 O 0.0 **** 0.0
4115 H 32.719474 16.106794 -0.002485 H 0.0 **** 0.0
4116 H 33.180013 17.250011 1.068798 H 0.0 **** 0.0
4117 O 21.623461 13.427436 6.671378 O 0.0 **** 0.0
4118 H 20.969502 12.676175 6.760864 H 0.0 **** 0.0
4119 H 22.202835 13.271436 5.871345 H 0.0 **** 0.0
4120 O 38.13155 23.630475 24.807969 O 0.0 **** 0.0
4121 H 37.501329 23.195739 25.451311 H 0.0 **** 0.0
4122 H 37.90375 23.34822 23.876035 H 0.0 **** 0.0
4123 O 16.202715 27.802173 26.825314 O 0.0 **** 0.0
4124 H 15.295185 28.192984 26.979327 H 0.0 **** 0.0
4125 H 16.872293 28.53954 26.735773 H 0.0 **** 0.0
4126 O 31.15846 17.112235 8.704163 O 0.0 **** 0.0
4127 H 30.85601 17.712368 7.963604 H 0.0 **** 0.0
4128 H 31.327234 17.656247 9.526129 H 0.0 **** 0.0
4129 O 21.724272 27.33855 33.12111 O 0.0 **** 0.0
4130 H 21.677797 26.442335 33.562359 H 0.0 **** 0.0
4131 H 22.381468 27.915289 33.606424 H 0.0 **** 0.0
4132 O 45.679254 2.318033 25.00619 O 0.0 **** 0.0
4133 H 45.532656 2.979699 25.741561 H 0.0 **** 0.0
4134 H 45.118351 1.506716 25.171157 H 0.0 **** 0.0
4135 O 39.059856 26.679603 0.454649 O 0.0 **** 0.0
4136 H 39.814775 27.222471 0.82269 H 0.0 **** 0.0
4137 H 38.344863 27.290505 0.11458 H 0.0 **** 0.0
4138 O 11.817919 9.929928 41.450808 O 0.0 **** 0.0
4139 H 11.272717 10.287227 40.692418 H 0.0 **** 0.0
4140 H 12.75422 9.766177 41.140018 H 0.0 **** 0.0
4141 O 0.914692 38.105138 43.44819 O 0.0 **** 0.0
4142 H 1.280005 39.034156 43.388734 H 0.0 **** 0.0
4143 H 0.000155 38.131846 43.851888 H 0.0 **** 0.0
4144 O 20.334019 33.894181 39.877713 O 0.0 **** 0.0
4145 H 20.103283 34.767839 40.306135 H 0.0 **** 0.0
4146 H 21.302619 33.695267 40.02708 H 0.0 **** 0.0
4147 O 35.562368 0.651399 1.672215 O 0.0 **** 0.0
4148 H 36.284793 -0.000494 1.441562 H 0.0 **** 0.0
4149 H 34.959095 0.25021 2.361542 H 0.0 **** 0.0
4150 O -0.001803 19.338665 25.985764 O 0.0 **** 0.0
4151 H 0.286656 20.069835 26.604025 H 0.0 **** 0.0
4152 H 0.141189 19.627038 25.03895 H 0.0 **** 0.0
4153 O 22.158649 29.096951 31.616683 O 0.0 **** 0.0
4154 H 22.758124 28.315555 31.443157 H 0.0 **** 0.0
4155 H 21.204257 28.802965 31.564053 H 0.0 **** 0.0
4156 O 22.466107 10.811058 11.047008 O 0.0 **** 0.0
4157 H 23.062795 10.013077 10.961847 H 0.0 **** 0.0
4158 H 21.525864 10.548848 10.829633 H 0.0 **** 0.0
4159 O 38.279012 40.746326 3.979824 O 0.0 **** 0.0
4160 H 39.080692 40.219387 4.262147 H 0.0 **** 0.0
4161 H 38.573177 41.625634 3.605194 H 0.0 **** 0.0
4162 O 7.670685 9.662849 16.510979 O 0.0 **** 0.0
4163 H 7.861171 9.203983 17.378861 H 0.0 **** 0.0
4164 H 7.131024 9.057818 15.925517 H 0.0 **** 0.0
4165 O 47.60473 39.897036 19.385647 O 0.0 **** 0.0
4166 H 47.719056 40.890365 19.368652 H 0.0 **** 0.0
4167 H 46.630366 39.673242 19.361239 H 0.0 **** 0.0
4168 O 16.021645 5.091244 15.382135 O 0.0 **** 0.0
4169 H 15.792748 4.182163 15.03394 H 0.0 **** 0.0
4170 H 16.212585 5.703631 14.614941 H 0.0 **** 0.0
4171 O 38.259434 13.842487 48.005458 O 0.0 **** 0.0
4172 H 39.208999 13.528944 47.996474 H 0.0 **** 0.0
4173 H 37.674151 13.144747 47.592342 H 0.0 **** 0.0
4174 O 4.728756 15.29519 47.983695 O 0.0 **** 0.0
4175 H 4.211901 15.397995 47.13378 H 0.0 **** 0.0
4176 H 5.478814 15.956417 47.999682 H 0.0 **** 0.0
4177 O 29.899773 -0.011571 3.739175 O 0.0 **** 0.0
4178 H 29.148955 0.356029 4.287998 H 0.0 **** 0.0
4179 H 30.746379 0.017466 4.270661 H 0.0 **** 0.0
4180 O 47.437612 22.214675 42.872547 O 0.0 **** 0.0
4181 H 47.999296 21.387371 42.860568 H 0.0 **** 0.0
4182 H 47.960198 22.966506 43.274687 H 0.0 **** 0.0
4183 O 13.991804 45.369127 12.333981 O 0.0 **** 0.0
4184 H 14.402781 45.476216 11.428612 H 0.0 **** 0.0
4185 H 12.995942 45.415726 12.255554 H 0.0 **** 0.0
4186 O 12.958943 1.170578 31.833186 O 0.0 **** 0.0
4187 H 13.296256 0.354667 32.302835 H 0.0 **** 0.0
4188 H 12.587639 1.812011 32.504573 H 0.0 **** 0.0
4189 O 32.098675 29.168558 14.256185 O 0.0 **** 0.0
4190 H 32.836008 28.590599 13.906375 H 0.0 **** 0.0
4191 H 32.23412 29.325925 15.234424 H 0.0 **** 0.0
4192 O 15.723167 42.437534 24.967842 O 0.0 **** 0.0
4193 H 16.204185 43.30759 25.075954 H 0.0 **** 0.0
4194 H 15.077501 42.505949 24.207252 H 0.0 **** 0.0
4195 O 26.117856 7.735206 22.356229 O 0.0 **** 0.0
4196 H 25.67126 6.945652 21.935257 H 0.0 **** 0.0
4197 H 25.432302 8.431273 22.569701 H 0.0 **** 0.0
4198 O 7.974047 20.002582 34.16404 O 0.0 **** 0.0
4199 H 7.475964 20.571831 34.818205 H 0.0 **** 0.0
4200 H 8.657639 20.558621 33.691192 H 0.0 **** 0.0
4201 O 6.005669 33.250714 22.156785 O 0.0 **** 0.0
4202 H 5.57061 32.354252 22.241309 H 0.0 **** 0.0
4203 H 6.981577 33.131621 21.973804 H 0.0 **** 0.0
4204 O 44.62326 37.490473 27.458189 O 0.0 **** 0.0
4205 H 45.606301 37.316796 27.517609 H 0.0 **** 0.0
4206 H 44.46256 38.313397 26.913181 H 0.0 **** 0.0
4207 O 33.835433 44.84872 12.045383 O 0.0 **** 0.0
4208 H 34.477153 44.081768 12.052037 H 0.0 **** 0.0
4209 H 34.344698 45.709363 12.04314 H 0.0 **** 0.0
4210 O 6.060337 42.708099 11.662227 O 0.0 **** 0.0
4211 H 5.199839 42.203704 11.734275 H 0.0 **** 0.0
4212 H 6.827363 42.070127 11.730969 H 0.0 **** 0.0
4213 O 8.620298 11.741016 20.165592 O 0.0 **** 0.0
4214 H 8.368955 10.805644 19.916654 H 0.0 **** 0.0
4215 H 9.075635 12.180978 19.391535 H 0.0 **** 0.0
4216 O 5.267135 35.901619 15.754925 O 0.0 **** 0.0
4217 H 4.380185 35.768762 15.312511 H 0.0 **** 0.0
4218 H 5.204419 35.6304 16.71543 H 0.0 **** 0.0
4219 O 31.842777 43.552675 46.002591 O 0.0 **** 0.0
4220 H 31.148325 44.272077 45.986461 H 0.0 **** 0.0
4221 H 32.752627 43.967688 46.002324 H 0.0 **** 0.0
4222 O 47.452802 9.452681 35.673489 O 0.0 **** 0.0
4223 H 48.014325 8.671608 35.400214 H 0.0 **** 0.0
4224 H 48.039319 10.168264 36.052966 H 0.0 **** 0.0
4225 O 14.815144 36.99255 44.130019 O 0.0 **** 0.0
4226 H 14.512113 37.439506 43.288316 H 0.0 **** 0.0
4227 H 14.495833 37.51694 44.919398 H 0.0 **** 0.0
4228 O 43.969103 15.324493 10.292391 O 0.0 **** 0.0
4229 H 44.712837 14.66255 10.38595 H 0.0 **** 0.0
4230 H 43.272404 15.14331 10.986543 H 0.0 **** 0.0
4231 O 18.321845 3.901344 7.431599 O 0.0 **** 0.0
4232 H 18.460504 3.346778 6.611055 H 0.0 **** 0.0
4233 H 17.985606 3.320876 8.173262 H 0.0 **** 0.0
4234 O 3.375616 33.953911 36.900136 O 0.0 **** 0.0
4235 H 2.554219 34.235389 36.40401 H 0.0 **** 0.0
4236 H 3.861246 34.764412 37.227724 H 0.0 **** 0.0
4237 O 9.864401 39.17495 28.207015 O 0.0 **** 0.0
4238 H 10.330887 39.812266 27.593597 H 0.0 **** 0.0
4239 H 9.927112 39.51074 29.146896 H 0.0 **** 0.0
4240 O 37.281425 0.388282 18.80588 O 0.0 **** 0.0
4241 H 36.283398 0.341316 18.763471 H 0.0 **** 0.0
4242 H 37.568146 1.344928 18.857675 H 0.0 **** 0.0
4243 O 10.628716 40.801976 18.801622 O 0.0 **** 0.0
4244 H 11.191512 41.253984 19.49373 H 0.0 **** 0.0
4245 H 11.217879 40.297024 18.170771 H 0.0 **** 0.0
4246 O 19.123275 29.82699 8.819161 O 0.0 **** 0.0
4247 H 18.868776 30.768853 8.599644 H 0.0 **** 0.0
4248 H 20.115883 29.765852 8.924302 H 0.0 **** 0.0
4249 O 35.602231 41.620498 12.165122 O 0.0 **** 0.0
4250 H 36.034376 40.838357 12.614087 H 0.0 **** 0.0
4251 H 34.799131 41.903811 12.689362 H 0.0 **** 0.0
4252 O 6.306509 20.278062 1.754676 O 0.0 **** 0.0
4253 H 6.84122 20.92731 1.213729 H 0.0 **** 0.0
4254 H 6.678273 19.357635 1.633559 H 0.0 **** 0.0
4255 O 21.292827 18.518487 39.312238 O 0.0 **** 0.0
4256 H 20.30806 18.366092 39.396336 H 0.0 **** 0.0
4257 H 21.592785 18.260328 38.393847 H 0.0 **** 0.0
4258 O 16.694894 15.986362 37.679859 O 0.0 **** 0.0
4259 H 16.680479 15.244713 38.35054 H 0.0 **** 0.0
4260 H 16.730997 15.601131 36.757711 H 0.0 **** 0.0
4261 O 40.827035 8.721968 17.80216 O 0.0 **** 0.0
4262 H 41.505099 9.391383 17.498553 H 0.0 **** 0.0
4263 H 40.036443 8.747397 17.190293 H 0.0 **** 0.0
4264 O 44.392209 20.775741 39.453269 O 0.0 **** 0.0
4265 H 44.487227 20.227464 40.284188 H 0.0 **** 0.0
4266 H 45.285685 20.874303 39.015033 H 0.0 **** 0.0
4267 O 36.349404 16.054693 17.581193 O 0.0 **** 0.0
4268 H 35.478126 16.508235 17.393475 H 0.0 **** 0.0
4269 H 37.078412 16.508008 17.068245 H 0.0 **** 0.0
4270 O 6.298998 40.480965 43.076278 O 0.0 **** 0.0
4271 H 6.99183 40.448269 42.355878 H 0.0 **** 0.0
4272 H 6.74796 40.534172 43.968279 H 0.0 **** 0.0
4273 O 33.638641 36.330574 30.747612 O 0.0 **** 0.0
4274 H 32.697179 36.184975 30.44345 H 0.0 **** 0.0
4275 H 33.83243 37.311293 30.77406 H 0.0 **** 0.0
4276 O 2.095502 14.895612 24.323242 O 0.0 **** 0.0
4277 H 1.211037 14.957131 24.785843 H 0.0 **** 0.0
4278 H 2.468538 13.974942 24.438449 H 0.0 **** 0.0
4279 O 40.889774 36.321391 7.643475 O 0.0 **** 0.0
4280 H 40.744075 37.274938 7.379688 H 0.0 **** 0.0
4281 H 41.871041 36.139539 7.707569 H 0.0 **** 0.0
4282 O 18.12745 13.81603 9.774135 O 0.0 **** 0.0
4283 H 18.315021 14.796869 9.720898 H 0.0 **** 0.0
4284 H 17.203483 13.672173 10.128609 H 0.0 **** 0.0
4285 O 20.932607 16.718859 34.864708 O 0.0 **** 0.0
4286 H 21.4813 17.547029 34.750106 H 0.0 **** 0.0
4287 H 19.962823 16.961971 34.886569 H 0.0 **** 0.0
4288 O 33.877246 9.662436 5.17054 O 0.0 **** 0.0
4289 H 34.449809 9.43897 4.381681 H 0.0 **** 0.0
4290 H 34.336025 10.352317 5.730584 H 0.0 **** 0.0
4291 O 42.739517 2.725529 17.893045 O 0.0 **** 0.0
4292 H 42.802684 3.280925 17.063824 H 0.0 **** 0.0
4293 H 43.641556 2.65996 18.319764 H 0.0 **** 0.0
4294 O 9.768277 2.496516 36.281346 O 0.0 **** 0.0
4295 H 10.27407 2.71649 35.447172 H 0.0 **** 0.0
4296 H 8.933252 2.000211 36.043695 H 0.0 **** 0.0
4297 O 22.537007 47.143694 26.224279 O 0.0 **** 0.0
4298 H 22.166602 47.999613 26.585202 H 0.0 **** 0.0
4299 H 23.408222 47.323912 25.767585 H 0.0 **** 0.0
4300 O 42.360768 29.262173 31.312745 O 0.0 **** 0.0
4301 H 42.990515 28.989096 30.585484 H 0.0 **** 0.0
4302 H 42.258062 30.256908 31.308571 H 0.0 **** 0.0
4303 O 6.922032 15.320621 36.272575 O 0.0 **** 0.0
4304 H 6.987691 14.337546 36.101356 H 0.0 **** 0.0
4305 H 7.296889 15.820651 35.491861 H 0.0 **** 0.0
4306 O 41.160092 22.105147 21.156905 O 0.0 **** 0.0
4307 H 40.162405 22.125977 21.091716 H 0.0 **** 0.0
4308 H 41.467562 21.159325 21.261533 H 0.0 **** 0.0
4309 O 37.631471 38.566651 27.271723 O 0.0 **** 0.0
4310 H 37.347477 37.609312 27.325694 H 0.0 **** 0.0
4311 H 37.357241 38.946322 26.388145 H 0.0 **** 0.0
4312 O 44.793782 26.757953 41.910331 O 0.0 **** 0.0
4313 H 44.11757 26.058924 42.143049 H 0.0 **** 0.0
4314 H 44.326989 27.61883 41.707703 H 0.0 **** 0.0
4315 O 29.210655 37.724547 10.400251 O 0.0 **** 0.0
4316 H 29.670644 37.156067 11.082383 H 0.0 **** 0.0
4317 H 28.532927 37.175479 9.911096 H 0.0 **** 0.0
4318 O 22.352531 24.975013 2.794597 O 0.0 **** 0.0
4319 H 23.313706 24.698962 2.795992 H 0.0 **** 0.0
4320 H 21.772001 24.161124 2.819734 H 0.0 **** 0.0
4321 O 1.087053 23.884905 0.947931 O 0.0 **** 0.0
4322 H 1.401273 24.833183 0.902128 H 0.0 **** 0.0
4323 H 0.171308 23.856246 1.348747 H 0.0 **** 0.0
4324 O 37.981704 3.394403 20.937751 O 0.0 **** 0.0
4325 H 37.514153 4.046657 20.341074 H 0.0 **** 0.0
4326 H 37.304279 2.866715 21.450298 H 0.0 **** 0.0
4327 O 42.991035 46.875297 7.20215 O 0.0 **** 0.0
4328 H 42.285508 46.33676 7.66288 H 0.0 **** 0.0
4329 H 43.505233 46.286747 6.578234 H 0.0 **** 0.0
4330 O 42.719093 43.868475 0.208419 O 0.0 **** 0.0
4331 H 43.486595 44.261611 0.714825 H 0.0 **** 0.0
4332 H 41.878742 44.356029 0.44541 H 0.0 **** 0.0
4333 O 24.079974 11.188066 48.000013 O 0.0 **** 0.0
4334 H 24.985767 11.018733 47.611517 H 0.0 **** 0.0
4335 H 23.796329 12.123488 47.788839 H 0.0 **** 0.0
4336 O 36.831833 16.156941 2.645613 O 0.0 **** 0.0
4337 H 37.652236 15.935381 2.118438 H 0.0 **** 0.0
4338 H 36.202591 16.686006 2.076221 H 0.0 **** 0.0
4339 O 47.900973 36.389397 18.280835 O 0.0 **** 0.0
4340 H 47.040197 35.884259 18.343799 H 0.0 **** 0.0
4341 H 47.793383 37.286056 18.710358 H 0.0 **** 0.0
4342 O 5.966085 4.788808 18.992577 O 0.0 **** 0.0
4343 H 5.783116 5.290159 19.838292 H 0.0 **** 0.0
4344 H 6.173277 3.834698 19.208929 H 0.0 **** 0.0
4345 O 9.452109 0.574002 29.999989 O 0.0 **** 0.0
4346 H 10.390953 0.267073 30.15629 H 0.0 **** 0.0
4347 H 8.821751 -0.004842 30.517339 H 0.0 **** 0.0
4348 O 23.088669 2.714435 9.321551 O 0.0 **** 0.0
4349 H 22.614732 3.075189 8.518244 H 0.0 **** 0.0
4350 H 23.835703 2.117994 9.027848 H 0.0 **** 0.0
4351 O 22.28272 35.620473 5.178688 O 0.0 **** 0.0
4352 H 22.056969 36.545047 5.48571 H 0.0 **** 0.0
4353 H 23.244238 35.429221 5.376094 H 0.0 **** 0.0
4354 O 20.726529 5.885702 22.977596 O 0.0 **** 0.0
4355 H 21.703266 6.083324 22.893963 H 0.0 **** 0.0
4356 H 20.206222 6.735664 22.894484 H 0.0 **** 0.0
4357 O 34.023314 11.228858 27.674816 O 0.0 **** 0.0
4358 H 34.653273 11.813968 27.164072 H 0.0 **** 0.0
4359 H 33.20128 11.748226 27.90844 H 0.0 **** 0.0
4360 O 16.150574 9.216357 5.146951 O 0.0 **** 0.0
4361 H 15.816082 9.798716 5.88792 H 0.0 **** 0.0
4362 H 16.451817 9.788105 4.383787 H 0.0 **** 0.0
4363 O 33.32244 36.016821 5.580338 O 0.0 **** 0.0
4364 H 34.30268 35.830412 5.513674 H 0.0 **** 0.0
4365 H 32.844106 35.186789 5.867229 H 0.0 **** 0.0
4366 O 42.974933 19.567327 47.589028 O 0.0 **** 0.0
4367 H 43.528052 20.258317 47.123566 H 0.0 **** 0.0
4368 H 42.174829 20.00316 48.001273 H 0.0 **** 0.0
4369 O 12.722101 36.671469 18.775717 O 0.0 **** 0.0
4370 H 11.722785 36.634527 18.783843 H 0.0 **** 0.0
4371 H 13.020244 37.625971 18.765708 H 0.0 **** 0.0
4372 O 9.351933 28.883198 7.47714 O 0.0 **** 0.0
4373 H 8.849015 28.019745 7.437329 H 0.0 **** 0.0
4374 H 8.705486 29.64614 7.467785 H 0.0 **** 0.0
4375 O 42.224401 42.730307 17.1938 O 0.0 **** 0.0
4376 H 42.513501 42.12348 16.453363 H 0.0 **** 0.0
4377 H 41.291185 43.045547 17.021188 H 0.0 **** 0.0
4378 O 3.621171 25.190537 25.580578 O 0.0 **** 0.0
4379 H 2.734499 25.65295 25.573563 H 0.0 **** 0.0
4380 H 4.339471 25.843479 25.340213 H 0.0 **** 0.0
4381 O 39.576611 4.855563 45.574554 O 0.0 **** 0.0
4382 H 40.333603 5.004236 46.210889 H 0.0 **** 0.0
4383 H 38.722684 5.162364 45.994964 H 0.0 **** 0.0
4384 O 31.09079 33.23837 4.570702 O 0.0 **** 0.0
4385 H 32.074756 33.317424 4.410624 H 0.0 **** 0.0
4386 H 30.831705 33.815533 5.345183 H 0.0 **** 0.0
4387 O 7.965369 15.793452 6.480528 O 0.0 **** 0.0
4388 H 7.815955 15.963132 5.506389 H 0.0 **** 0.0
4389 H 7.287914 15.136859 6.812197 H 0.0 **** 0.0
4390 O 16.214394 22.47538 21.949252 O 0.0 **** 0.0
4391 H 16.054788 23.438434 21.732187 H 0.0 **** 0.0
4392 H 15.400936 21.942127 21.716893 H 0.0 **** 0.0
4393 O 40.165122 18.796749 27.600018 O 0.0 **** 0.0
4394 H 39.698704 19.602386 27.965348 H 0.0 **** 0.0
4395 H 39.495184 18.075966 27.421923 H 0.0 **** 0.0
4396 O 38.688873 20.778825 20.179076 O 0.0 **** 0.0
4397 H 39.29199 19.981152 20.18476 H 0.0 **** 0.0
4398 H 38.183185 20.808149 19.316821 H 0.0 **** 0.0
4399 O 19.332605 3.695263 26.600114 O 0.0 **** 0.0
4400 H 20.142637 3.401192 27.107494 H 0.0 **** 0.0
4401 H 18.589505 3.043461 26.751831 H 0.0 **** 0.0
4402 O 45.151476 33.914958 41.907333 O 0.0 **** 0.0
4403 H 44.718421 33.020425 42.018407 H 0.0 **** 0.0
4404 H 46.145417 33.805167 41.89778 H 0.0 **** 0.0
4405 O 35.580501 5.943141 29.706954 O 0.0 **** 0.0
4406 H 36.279015 6.657955 29.741342 H 0.0 **** 0.0
4407 H 36.022109 5.045999 29.693519 H 0.0 **** 0.0
4408 O 35.03298 9.05714 29.983754 O 0.0 **** 0.0
4409 H 35.274263 8.376748 30.675789 H 0.0 **** 0.0
4410 H 35.775075 9.132672 29.317681 H 0.0 **** 0.0
4411 O 31.815503 0.226001 46.532605 O 0.0 **** 0.0
4412 H 32.556983 0.00076 45.900516 H 0.0 **** 0.0
4413 H 30.938748 -0.019074 46.118717 H 0.0 **** 0.0
4414 O 34.045276 23.938456 11.124227 O 0.0 **** 0.0
4415 H 33.398719 24.701168 11.141461 H 0.0 **** 0.0
4416 H 34.979661 24.294086 11.101529 H 0.0 **** 0.0
4417 O 37.198116 21.65614 22.62748 O 0.0 **** 0.0
4418 H 37.284216 21.638855 21.631312 H 0.0 **** 0.0
4419 H 36.367494 22.151646 22.881654 H 0.0 **** 0.0
4420 O 10.6986 24.524444 22.561289 O 0.0 **** 0.0
4421 H 10.406057 24.80969 23.47404 H 0.0 **** 0.0
4422 H 11.353259 23.772682 22.640907 H 0.0 **** 0.0
4423 O 8.212097 26.434657 44.672298 O 0.0 **** 0.0
4424 H 8.156369 25.864497 43.852619 H 0.0 **** 0.0
4425 H 7.301756 26.528624 45.075427 H 0.0 **** 0.0
4426 O 7.710136 40.080488 39.787104 O 0.0 **** 0.0
4427 H 8.263565 40.38634 40.561852 H 0.0 **** 0.0
4428 H 7.983487 39.15429 39.5273 H 0.0 **** 0.0
4429 O 16.3241 39.051709 9.360677 O 0.0 **** 0.0
4430 H 15.826877 38.205335 9.169671 H 0.0 **** 0.0
4431 H 17.107248 38.85246 9.949779 H 0.0 **** 0.0
4432 O 23.568847 46.265985 44.905408 O 0.0 **** 0.0
4433 H 23.983872 45.512088 45.414775 H 0.0 **** 0.0
4434 H 22.840638 45.91103 44.319079 H 0.0 **** 0.0
4435 O 6.398784 13.552213 45.675718 O 0.0 **** 0.0
4436 H 6.57136 14.530893 45.787371 H 0.0 **** 0.0
4437 H 5.501556 13.417882 45.255005 H 0.0 **** 0.0
4438 O 9.786412 11.488635 1.971579 O 0.0 **** 0.0
4439 H 8.963407 12.033042 1.809266 H 0.0 **** 0.0
4440 H 9.817612 11.209791 2.931442 H 0.0 **** 0.0
4441 O 20.76579 0.546144 26.128326 O 0.0 **** 0.0
4442 H 21.618284 0.29663 25.668913 H 0.0 **** 0.0
4443 H 20.741892 0.128103 27.036475 H 0.0 **** 0.0
4444 O 28.172389 25.15394 7.821454 O 0.0 **** 0.0
4445 H 28.644504 24.392357 7.377425 H 0.0 **** 0.0
4446 H 27.669204 25.679578 7.13547 H 0.0 **** 0.0
4447 O 44.2814 18.292777 18.682027 O 0.0 **** 0.0
4448 H 45.14355 17.902784 19.005548 H 0.0 **** 0.0
4449 H 44.12472 18.014779 17.734277 H 0.0 **** 0.0
4450 O 8.276822 18.7944 13.032898 O 0.0 **** 0.0
4451 H 8.354025 19.779107 13.189278 H 0.0 **** 0.0
4452 H 9.165637 18.430513 12.754228 H 0.0 **** 0.0
4453 O 37.664525 45.43856 46.782844 O 0.0 **** 0.0
4454 H 37.049772 45.012251 47.446472 H 0.0 **** 0.0
4455 H 38.102477 46.235764 47.198449 H 0.0 **** 0.0
4456 O 11.142125 12.492939 35.666544 O 0.0 **** 0.0
4457 H 11.964196 12.557701 35.100798 H 0.0 **** 0.0
4458 H 11.081767 13.295702 36.259833 H 0.0 **** 0.0
4459 O 18.517761 18.380915 23.805934 O 0.0 **** 0.0
4460 H 17.58507 18.722819 23.690812 H 0.0 **** 0.0
4461 H 19.136614 19.149303 23.969219 H 0.0 **** 0.0
4462 O 31.017846 27.786694 7.969148 O 0.0 **** 0.0
4463 H 30.208018 28.362712 8.08071 H 0.0 **** 0.0
4464 H 30.989468 27.039574 8.633278 H 0.0 **** 0.0
4465 O 23.915601 20.624966 26.790247 O 0.0 **** 0.0
4466 H 23.0841 20.217361 26.412717 H 0.0 **** 0.0
4467 H 24.278516 20.034543 27.511188 H 0.0 **** 0.0
4468 O 14.283415 2.817964 27.326883 O 0.0 **** 0.0
4469 H 13.351284 2.774415 27.686464 H 0.0 **** 0.0
4470 H 14.473657 1.993807 26.79337 H 0.0 **** 0.0
4471 O 16.539472 24.357884 17.679622 O 0.0 **** 0.0
4472 H 17.397933 24.350535 17.166734 H 0.0 **** 0.0
4473 H 16.598004 23.707172 18.436729 H 0.0 **** 0.0
4474 O 19.919605 47.633369 37.425465 O 0.0 **** 0.0
4475 H 20.66295 47.391432 38.049137 H 0.0 **** 0.0
4476 H 19.793475 46.900316 36.757044 H 0.0 **** 0.0
4477 O 46.069854 41.550288 6.242826 O 0.0 **** 0.0
4478 H 47.060722 41.679533 6.282054 H 0.0 **** 0.0
4479 H 45.616442 42.302674 6.720733 H 0.0 **** 0.0
4480 O 37.379468 9.893755 45.292734 O 0.0 **** 0.0
4481 H 36.575047 10.347028 44.90866 H 0.0 **** 0.0
4482 H 38.100505 9.85201 44.601051 H 0.0 **** 0.0
4483 O 34.962974 21.793928 17.109102 O 0.0 **** 0.0
4484 H 35.513379 21.793743 16.274167 H 0.0 **** 0.0
4485 H 34.970467 22.708732 17.51301 H 0.0 **** 0.0
4486 O 42.012332 7.51449 15.042614 O 0.0 **** 0.0
4487 H 41.585892 7.943033 15.839208 H 0.0 **** 0.0
4488 H 42.682897 6.837979 15.347146 H 0.0 **** 0.0
4489 O 14.313567 26.800139 47.072995 O 0.0 **** 0.0
4490 H 15.140035 26.267564 46.890302 H 0.0 **** 0.0
4491 H 13.541721 26.179982 47.213429 H 0.0 **** 0.0
4492 O 28.635158 28.021295 10.660289 O 0.0 **** 0.0
4493 H 29.439728 28.46789 11.051804 H 0.0 **** 0.0
4494 H 28.766192 27.90175 9.676113 H 0.0 **** 0.0
4495 O 7.23998 12.951991 7.059221 O 0.0 **** 0.0
4496 H 8.0602 12.47399 6.744871 H 0.0 **** 0.0
4497 H 6.594062 13.039628 6.30082 H 0.0 **** 0.0
4498 O 4.826964 -0.002497 37.53674 O 0.0 **** 0.0
4499 H 4.207475 0.285079 38.267217 H 0.0 **** 0.0
4500 H 5.772535 0.068633 37.854386 H 0.0 **** 0.0
4501 O 14.279999 4.035292 21.159382 O 0.0 **** 0.0
4502 H 13.880178 4.942108 21.293139 H 0.0 **** 0.0
4503 H 15.175574 4.126858 20.723923 H 0.0 **** 0.0
4504 O 22.631972 45.839796 20.30781 O 0.0 **** 0.0
4505 H 23.090647 46.726573 20.250296 H 0.0 **** 0.0
4506 H 23.310045 45.108459 20.23415 H 0.0 **** 0.0
4507 O 2.612271 36.140877 4.010069 O 0.0 **** 0.0
4508 H 2.837385 35.181639 3.839046 H 0.0 **** 0.0
4509 H 3.454601 36.678053 4.054632 H 0.0 **** 0.0
4510 O 38.14213 10.611004 40.267416 O 0.0 **** 0.0
4511 H 37.431577 10.580194 39.564403 H 0.0 **** 0.0
4512 H 38.3166 9.686233 40.605679 H 0.0 **** 0.0
4513 O 26.107276 17.212782 47.432706 O 0.0 **** 0.0
4514 H 26.472168 16.474321 47.999797 H 0.0 **** 0.0
4515 H 25.166924 16.997234 47.169382 H 0.0 **** 0.0
4516 O 38.886511 24.387197 37.960832 O 0.0 **** 0.0
4517 H 39.728989 24.755703 37.56777 H 0.0 **** 0.0
4518 H 38.271214 25.139792 38.195509 H 0.0 **** 0.0
4519 O 27.857387 23.118837 16.556937 O 0.0 **** 0.0
4520 H 26.959199 22.774865 16.283065 H 0.0 **** 0.0
4521 H 27.907018 24.101319 16.377135 H 0.0 **** 0.0
4522 O 7.726069 42.38639 43.08583 O 0.0 **** 0.0
4523 H 7.029455 42.704588 43.728901 H 0.0 **** 0.0
4524 H 8.437792 41.890826 43.583756 H 0.0 **** 0.0
4525 O 17.844381 7.615062 7.66684 O 0.0 **** 0.0
4526 H 17.648109 7.225823 8.566859 H 0.0 **** 0.0
4527 H 18.477996 8.382302 7.766526 H 0.0 **** 0.0
4528 O 27.703068 19.339885 39.733591 O 0.0 **** 0.0
4529 H 26.7246 19.546405 39.737058 H 0.0 **** 0.0
4530 H 27.834563 18.349999 39.67976 H 0.0 **** 0.0
4531 O 39.41304 29.341046 0.393122 O 0.0 **** 0.0
4532 H 38.51315 29.776626 0.416139 H 0.0 **** 0.0
4533 H 40.121781 30.043563 0.328173 H 0.0 **** 0.0
4534 O 10.239342 44.061849 39.190288 O 0.0 **** 0.0
4535 H 9.409627 44.498607 38.842612 H 0.0 **** 0.0
4536 H 10.051125 43.100216 39.390035 H 0.0 **** 0.0
4537 O 1.05731 30.809032 15.811568 O 0.0 **** 0.0
4538 H 1.0926 29.953491 16.328161 H 0.0 **** 0.0
4539 H 0.188533 31.270826 15.990551 H 0.0 **** 0.0
4540 O 10.773638 13.717916 43.769765 O 0.0 **** 0.0
4541 H 10.161521 12.931847 43.683332 H 0.0 **** 0.0
4542 H 11.32686 13.802235 42.940971 H 0.0 **** 0.0
4543 O 30.465345 1.719113 39.75135 O 0.0 **** 0.0
4544 H 30.959225 0.884122 39.508585 H 0.0 **** 0.0
4545 H 29.924764 2.026241 38.968082 H 0.0 **** 0.0
4546 O 44.755486 43.514196 33.725458 O 0.0 **** 0.0
4547 H 43.831155 43.608204 33.355544 H 0.0 **** 0.0
4548 H 44.814119 43.992824 34.601552 H 0.0 **** 0.0
4549 O 35.597914 31.815329 31.533392 O 0.0 **** 0.0
4550 H 35.356628 32.785816 31.533219 H 0.0 **** 0.0
4551 H 34.767846 31.265554 31.627185 H 0.0 **** 0.0
4552 O 5.176683 15.764702 40.526784 O 0.0 **** 0.0
4553 H 5.754194 15.145553 39.99462 H 0.0 **** 0.0
4554 H 4.793922 15.27345 41.309234 H 0.0 **** 0.0
4555 O 31.436497 22.769294 1.853543 O 0.0 **** 0.0
4556 H 32.139461 22.951036 2.541201 H 0.0 **** 0.0
4557 H 30.533686 22.805997 2.282086 H 0.0 **** 0.0
4558 O 32.247241 15.908596 26.138291 O 0.0 **** 0.0
4559 H 31.567148 15.984049 25.409015 H 0.0 **** 0.0
4560 H 32.83668 15.119771 25.963993 H 0.0 **** 0.0
4561 O 42.034346 1.026641 42.866659 O 0.0 **** 0.0
4562 H 42.853982 0.74581 42.367265 H 0.0 **** 0.0
4563 H 41.405625 0.252214 42.937631 H 0.0 **** 0.0
4564 O 15.952507 35.662511 36.189772 O 0.0 **** 0.0
4565 H 16.83777 36.001938 36.507833 H 0.0 **** 0.0
4566 H 15.695627 34.854166 36.71954 H 0.0 **** 0.0
4567 O 34.686435 37.132353 15.828186 O 0.0 **** 0.0
4568 H 34.605202 36.406757 15.144831 H 0.0 **** 0.0
4569 H 33.837533 37.660215 15.85632 H 0.0 **** 0.0
4570 O 34.931413 29.994802 5.521211 O 0.0 **** 0.0
4571 H 33.974902 30.280567 5.462144 H 0.0 **** 0.0
4572 H 35.520137 30.802959 5.539886 H 0.0 **** 0.0
4573 O 27.279098 23.496072 14.150343 O 0.0 **** 0.0
4574 H 28.062678 22.878151 14.21545 H 0.0 **** 0.0
4575 H 27.565572 24.353698 13.723173 H 0.0 **** 0.0
4576 O 5.033074 27.986924 8.622793 O 0.0 **** 0.0
4577 H 5.042043 27.0489 8.276247 H 0.0 **** 0.0
4578 H 5.813645 28.487846 8.24883 H 0.0 **** 0.0
4579 O 9.318536 12.614798 37.511402 O 0.0 **** 0.0
4580 H 9.334597 11.640623 37.286039 H 0.0 **** 0.0
4581 H 8.379143 12.953643 37.458595 H 0.0 **** 0.0
4582 O 34.963162 38.128637 6.571538 O 0.0 **** 0.0
4583 H 35.810699 38.105835 7.101843 H 0.0 **** 0.0
4584 H 34.910183 38.989108 6.064737 H 0.0 **** 0.0
4585 O 6.110056 36.863985 0.084348 O 0.0 **** 0.0
4586 H 7.019171 37.14761 0.38952 H 0.0 **** 0.0
4587 H 5.529829 37.670569 -0.028884 H 0.0 **** 0.0
4588 O 39.30488 6.028149 10.19338 O 0.0 **** 0.0
4589 H 38.663948 6.792424 10.121597 H 0.0 **** 0.0
4590 H 40.223826 6.379549 10.372597 H 0.0 **** 0.0
4591 O 17.555286 5.6 46.039055 O 0.0 **** 0.0
4592 H 18.070785 6.448819 45.921455 H 0.0 **** 0.0
4593 H 17.40596 5.174389 45.14652 H 0.0 **** 0.0
4594 O 38.906943 29.559951 13.137719 O 0.0 **** 0.0
4595 H 38.534245 29.649491 14.061376 H 0.0 **** 0.0
4596 H 39.159771 30.463365 12.79133 H 0.0 **** 0.0
4597 O 5.980596 20.248178 6.680184 O 0.0 **** 0.0
4598 H 5.16786 20.082103 7.238702 H 0.0 **** 0.0
4599 H 6.504795 19.400885 6.594312 H 0.0 **** 0.0
4600 O 21.068052 13.185474 9.12771 O 0.0 **** 0.0
4601 H 20.875238 12.234513 9.369699 H 0.0 **** 0.0
4602 H 20.210175 13.696821 9.076383 H 0.0 **** 0.0
4603 O 10.642141 24.024311 2.722576 O 0.0 **** 0.0
4604 H 11.23947 24.812587 2.574648 H 0.0 **** 0.0
4605 H 11.004081 23.467565 3.470303 H 0.0 **** 0.0
4606 O 10.459797 20.646454 43.761808 O 0.0 **** 0.0
4607 H 9.498531 20.805547 43.536598 H 0.0 **** 0.0
4608 H 10.89696 21.516375 43.990259 H 0.0 **** 0.0
4609 O 15.883488 11.562646 21.010165 O 0.0 **** 0.0
4610 H 15.595583 11.002001 21.7866 H 0.0 **** 0.0
4611 H 16.609619 12.186035 21.300306 H 0.0 **** 0.0
4612 O 10.169903 14.049765 5.984921 O 0.0 **** 0.0
4613 H 10.133662 13.273433 6.614253 H 0.0 **** 0.0
4614 H 9.972021 14.893218 6.484414 H 0.0 **** 0.0
4615 O 40.88291 30.682412 17.172399 O 0.0 **** 0.0
4616 H 40.150363 30.315929 16.598702 H 0.0 **** 0.0
4617 H 41.272115 31.494518 16.737582 H 0.0 **** 0.0
4618 O 40.462816 47.631427 19.972023 O 0.0 **** 0.0
4619 H 40.081667 46.937599 19.360965 H 0.0 **** 0.0
4620 H 41.301109 48.002855 19.572813 H 0.0 **** 0.0
4621 O 47.335791 38.156064 16.685301 O 0.0 **** 0.0
4622 H 47.921047 38.666689 16.055379 H 0.0 **** 0.0
4623 H 46.608733 38.753709 17.023341 H 0.0 **** 0.0
4624 O 39.374417 3.500221 13.936392 O 0.0 **** 0.0
4625 H 38.699203 3.321184 13.220784 H 0.0 **** 0.0
4626 H 39.968494 4.253173 13.653201 H 0.0 **** 0.0
4627 O 29.614727 32.543786 34.789435 O 0.0 **** 0.0
4628 H 29.832476 31.836189 34.11716 H 0.0 **** 0.0
4629 H 28.716197 32.35967 35.187943 H 0.0 **** 0.0
4630 O 21.27649 32.460324 5.444753 O 0.0 **** 0.0
4631 H 22.025568 33.025812 5.78996 H 0.0 **** 0.0
4632 H 20.826864 32.930279 4.685121 H 0.0 **** 0.0
4633 O 17.422758 42.125231 19.599233 O 0.0 **** 0.0
4634 H 17.354685 42.817048 18.880332 H 0.0 **** 0.0
4635 H 17.332965 42.56386 20.493439 H 0.0 **** 0.0
4636 O 34.284532 40.213434 14.000006 O 0.0 **** 0.0
4637 H 33.373681 39.902008 13.729031 H 0.0 **** 0.0
4638 H 34.822735 39.432847 14.317945 H 0.0 **** 0.0
4639 O 45.399484 37.650417 44.978514 O 0.0 **** 0.0
4640 H 44.677408 37.246824 45.540458 H 0.0 **** 0.0
4641 H 44.991855 38.094505 44.180587 H 0.0 **** 0.0
4642 O 40.172586 20.829497 30.937022 O 0.0 **** 0.0
4643 H 40.892742 21.190946 30.344743 H 0.0 **** 0.0
4644 H 40.402785 21.014398 31.892471 H 0.0 **** 0.0
4645 O 16.833519 29.527452 32.022159 O 0.0 **** 0.0
4646 H 16.613078 28.678818 32.503084 H 0.0 **** 0.0
4647 H 16.837251 30.287508 32.672053 H 0.0 **** 0.0
4648 O 22.026914 27.149199 37.899049 O 0.0 **** 0.0
4649 H 21.307207 27.815857 37.705002 H 0.0 **** 0.0
4650 H 22.921054 27.569702 37.74493 H 0.0 **** 0.0
4651 O 19.559855 3.308307 13.740526 O 0.0 **** 0.0
4652 H 18.72154 3.448127 14.267537 H 0.0 **** 0.0
4653 H 19.867052 2.362678 13.847665 H 0.0 **** 0.0
4654 O 34.848815 28.82315 3.119597 O 0.0 **** 0.0
4655 H 35.517909 28.682322 3.849353 H 0.0 **** 0.0
4656 H 34.064173 29.32785 3.479708 H 0.0 **** 0.0
4657 O 44.762328 34.382319 3.039064 O 0.0 **** 0.0
4658 H 43.907376 34.775222 2.700321 H 0.0 **** 0.0
4659 H 44.569364 33.786033 3.818339 H 0.0 **** 0.0
4660 O 36.350461 19.023379 21.176453 O 0.0 **** 0.0
4661 H 36.29156 18.359025 20.431318 H 0.0 **** 0.0
4662 H 37.260006 19.439032 21.181241 H 0.0 **** 0.0
4663 O 33.72841 35.952166 23.172715 O 0.0 **** 0.0
4664 H 34.639382 36.053878 22.772906 H 0.0 **** 0.0
4665 H 33.277706 35.152481 22.775938 H 0.0 **** 0.0
4666 O 34.879776 6.614351 27.677039 O 0.0 **** 0.0
4667 H 33.897413 6.435595 27.621599 H 0.0 **** 0.0
4668 H 35.03074 7.552533 27.988629 H 0.0 **** 0.0
4669 O 24.23195 15.659649 25.446248 O 0.0 **** 0.0
4670 H 23.601864 15.509862 24.684264 H 0.0 **** 0.0
4671 H 23.85124 16.348661 26.063002 H 0.0 **** 0.0
4672 O 14.886879 19.947786 7.534789 O 0.0 **** 0.0
4673 H 15.575178 20.62604 7.277341 H 0.0 **** 0.0
4674 H 14.230849 20.361718 8.165936 H 0.0 **** 0.0
4675 O 18.285182 3.019946 18.120318 O 0.0 **** 0.0
4676 H 19.182448 3.246821 18.499135 H 0.0 **** 0.0
4677 H 17.769648 3.861287 17.957733 H 0.0 **** 0.0
4678 O 4.836054 41.17058 1.494331 O 0.0 **** 0.0
4679 H 4.863113 40.792162 2.419604 H 0.0 **** 0.0
4680 H 4.138809 40.693382 0.959359 H 0.0 **** 0.0
4681 O 14.065093 6.643212 3.10976 O 0.0 **** 0.0
4682 H 14.050819 7.600048 2.819376 H 0.0 **** 0.0
4683 H 14.801993 6.161833 2.635087 H 0.0 **** 0.0
4684 O 39.885156 -0.081753 7.59154 O 0.0 **** 0.0
4685 H 39.13436 0.505948 7.893163 H 0.0 **** 0.0
4686 H 40.46702 0.422147 6.953118 H 0.0 **** 0.0
4687 O 7.029058 32.578324 24.348232 O 0.0 **** 0.0
4688 H 6.133893 32.132581 24.355729 H 0.0 **** 0.0
4689 H 6.916218 33.549066 24.136124 H 0.0 **** 0.0
4690 O 43.654576 29.202385 3.665115 O 0.0 **** 0.0
4691 H 42.708356 29.047329 3.381058 H 0.0 **** 0.0
4692 H 43.764103 30.153356 3.954463 H 0.0 **** 0.0
4693 O 23.306059 23.808399 30.172272 O 0.0 **** 0.0
4694 H 22.436208 23.669781 30.645776 H 0.0 **** 0.0
4695 H 23.599619 24.757633 30.285583 H 0.0 **** 0.0
4696 O 27.162136 30.500552 23.756485 O 0.0 **** 0.0
4697 H 27.312519 31.162608 24.490739 H 0.0 **** 0.0
4698 H 26.179978 30.364505 23.626406 H 0.0 **** 0.0
4699 O 14.124128 24.299847 27.143692 O 0.0 **** 0.0
4700 H 15.068393 23.970859 27.157623 H 0.0 **** 0.0
4701 H 14.117205 25.285999 26.977804 H 0.0 **** 0.0
4702 O 15.893321 32.450324 19.13218 O 0.0 **** 0.0
4703 H 15.160737 31.921411 19.560707 H 0.0 **** 0.0
4704 H 16.197869 31.985163 18.300953 H 0.0 **** 0.0
4705 O 23.901956 43.602781 16.594226 O 0.0 **** 0.0
4706 H 23.967084 42.815071 17.206872 H 0.0 **** 0.0
4707 H 23.398886 44.337851 17.04882 H 0.0 **** 0.0
4708 O 7.21635 2.688976 14.091612 O 0.0 **** 0.0
4709 H 6.817704 2.830939 14.997697 H 0.0 **** 0.0
4710 H 6.731187 3.251597 13.422181 H 0.0 **** 0.0
4711 O 21.213822 22.928178 8.072061 O 0.0 **** 0.0
4712 H 21.510405 22.591633 7.178283 H 0.0 **** 0.0
4713 H 21.737485 22.470898 8.790904 H 0.0 **** 0.0
4714 O 19.171724 7.739321 35.070208 O 0.0 **** 0.0
4715 H 18.410144 8.225777 34.641933 H 0.0 **** 0.0
4716 H 19.364579 8.143383 35.964414 H 0.0 **** 0.0
4717 O 2.37165 12.418012 34.881426 O 0.0 **** 0.0
4718 H 3.334897 12.572587 35.101257 H 0.0 **** 0.0
4719 H 1.963482 13.270402 34.55448 H 0.0 **** 0.0
4720 O 32.924963 25.044571 25.059188 O 0.0 **** 0.0
4721 H 32.872191 24.368753 24.323968 H 0.0 **** 0.0
4722 H 32.960609 25.963179 24.665549 H 0.0 **** 0.0
4723 O 17.785293 47.214459 17.296568 O 0.0 **** 0.0
4724 H 17.178903 47.999583 17.170333 H 0.0 **** 0.0
4725 H 18.528632 47.463883 17.917291 H 0.0 **** 0.0
4726 O 28.013222 40.975108 33.596855 O 0.0 **** 0.0
4727 H 28.575489 40.259576 33.182207 H 0.0 **** 0.0
4728 H 28.037284 40.88292 34.592337 H 0.0 **** 0.0
4729 O 35.05731 22.986916 34.839667 O 0.0 **** 0.0
4730 H 35.146878 23.546676 35.663505 H 0.0 **** 0.0
4731 H 34.487261 22.189747 35.038735 H 0.0 **** 0.0
4732 O 11.082735 17.955911 21.582266 O 0.0 **** 0.0
4733 H 11.725578 17.195697 21.487974 H 0.0 **** 0.0
4734 H 11.581781 18.821509 21.54037 H 0.0 **** 0.0
4735 O 16.978884 16.573952 27.601857 O 0.0 **** 0.0
4736 H 17.749164 17.191189 27.762321 H 0.0 **** 0.0
4737 H 17.323452 15.667535 27.35743 H 0.0 **** 0.0
4738 O 0.019112 43.467571 37.955347 O 0.0 **** 0.0
4739 H 0.001192 44.389393 38.342626 H 0.0 **** 0.0
4740 H 0.000499 43.525032 36.957141 H 0.0 **** 0.0
4741 O 1.707717 39.001782 12.354061 O 0.0 **** 0.0
4742 H 1.534297 38.724581 13.299126 H 0.0 **** 0.0
4743 H 0.943388 39.555535 12.023575 H 0.0 **** 0.0
4744 O 11.518224 29.778859 17.93383 O 0.0 **** 0.0
4745 H 11.248997 29.016236 18.522035 H 0.0 **** 0.0
4746 H 11.309303 30.642923 18.391879 H 0.0 **** 0.0
4747 O 30.214364 25.358732 44.837559 O 0.0 **** 0.0
4748 H 31.082837 25.095696 45.257833 H 0.0 **** 0.0
4749 H 29.737818 24.54009 44.516946 H 0.0 **** 0.0
4750 O 18.425374 4.328273 30.472283 O 0.0 **** 0.0
4751 H 17.766158 3.919416 31.10342 H 0.0 **** 0.0
4752 H 18.874824 5.10365 30.91596 H 0.0 **** 0.0
4753 O 33.354826 29.59319 35.228733 O 0.0 **** 0.0
4754 H 33.018004 29.725848 34.296523 H 0.0 **** 0.0
4755 H 34.034898 30.295154 35.440422 H 0.0 **** 0.0
4756 O 5.576995 47.52132 8.568045 O 0.0 **** 0.0
4757 H 5.032201 47.699488 9.387508 H 0.0 **** 0.0
4758 H 4.96838 47.320304 7.800424 H 0.0 **** 0.0
4759 O 43.134135 25.572239 30.087305 O 0.0 **** 0.0
4760 H 43.956616 25.02451 29.933744 H 0.0 **** 0.0
4761 H 43.360382 26.543013 30.006847 H 0.0 **** 0.0
4762 O 33.246439 26.508612 42.712125 O 0.0 **** 0.0
4763 H 33.049768 27.482401 42.597591 H 0.0 **** 0.0
4764 H 32.406009 26.025519 42.957812 H 0.0 **** 0.0
4765 O 32.413233 36.429847 18.86195 O 0.0 **** 0.0
4766 H 32.49031 35.943622 19.732414 H 0.0 **** 0.0
4767 H 32.169246 35.783007 18.139363 H 0.0 **** 0.0
4768 O 27.074697 1.73105 7.298321 O 0.0 **** 0.0
4769 H 26.937856 0.8409 7.733027 H 0.0 **** 0.0
4770 H 26.568407 2.429997 7.803502 H 0.0 **** 0.0
4771 O 17.650775 9.292098 31.489049 O 0.0 **** 0.0
4772 H 17.522536 8.369968 31.854143 H 0.0 **** 0.0
4773 H 16.864889 9.538188 30.9217 H 0.0 **** 0.0
4774 O 18.146612 35.790059 8.493079 O 0.0 **** 0.0
4775 H 18.505494 36.585139 8.004085 H 0.0 **** 0.0
4776 H 17.166666 35.702894 8.313718 H 0.0 **** 0.0
4777 O 44.763624 0.926038 9.997737 O 0.0 **** 0.0
4778 H 43.990694 1.551765 10.103132 H 0.0 **** 0.0
4779 H 44.422944 -0.000841 9.839951 H 0.0 **** 0.0
4780 O 13.66637 6.112447 12.258691 O 0.0 **** 0.0
4781 H 13.042582 5.385889 11.970479 H 0.0 **** 0.0
4782 H 13.441073 6.957184 11.773176 H 0.0 **** 0.0
4783 O 14.44797 13.932021 28.14855 O 0.0 **** 0.0
4784 H 13.455912 14.019441 28.239343 H 0.0 **** 0.0
4785 H 14.852465 13.774262 29.049416 H 0.0 **** 0.0
4786 O 13.283195 39.947694 9.603621 O 0.0 **** 0.0
4787 H 13.531761 40.312018 10.501143 H 0.0 **** 0.0
4788 H 14.095664 39.567423 9.161636 H 0.0 **** 0.0
4789 O 44.328249 26.703582 47.485045 O 0.0 **** 0.0
4790 H 45.090706 27.349696 47.449558 H 0.0 **** 0.0
4791 H 43.532824 27.148989 47.89611 H 0.0 **** 0.0
4792 O 34.455747 30.857134 24.98338 O 0.0 **** 0.0
4793 H 35.101136 31.619178 25.036534 H 0.0 **** 0.0
4794 H 33.526128 31.213629 24.889664 H 0.0 **** 0.0
4795 O 4.095279 44.050261 37.809377 O 0.0 **** 0.0
4796 H 4.457665 43.238032 38.266568 H 0.0 **** 0.0
4797 H 3.84913 43.820706 36.867688 H 0.0 **** 0.0
4798 O 21.855127 7.182213 4.833325 O 0.0 **** 0.0
4799 H 21.575033 6.409588 5.403115 H 0.0 **** 0.0
4800 H 21.910158 8.00781 5.394953 H 0.0 **** 0.0
4801 O 0.575717 15.676159 16.005595 O 0.0 **** 0.0
4802 H -0.001007 16.493016 16.019633 H 0.0 **** 0.0
4803 H 1.537922 15.94699 16.035168 H 0.0 **** 0.0
4804 O 9.537458 47.120102 12.186133 O 0.0 **** 0.0
4805 H 10.457867 46.925401 11.847014 H 0.0 **** 0.0
4806 H 9.548564 47.971837 12.710048 H 0.0 **** 0.0
4807 O 18.963526 7.882798 25.831989 O 0.0 **** 0.0
4808 H 18.300652 8.631551 25.826633 H 0.0 **** 0.0
4809 H 19.869313 8.241196 26.058183 H 0.0 **** 0.0
4810 O 13.765079 26.072975 41.984021 O 0.0 **** 0.0
4811 H 14.006971 25.316834 41.375907 H 0.0 **** 0.0
4812 H 12.852395 25.917691 42.362119 H 0.0 **** 0.0
4813 O 28.494378 26.301851 17.83269 O 0.0 **** 0.0
4814 H 28.906844 27.212148 17.868671 H 0.0 **** 0.0
4815 H 27.501462 26.382152 17.920624 H 0.0 **** 0.0
4816 O 48.003367 28.654948 23.850858 O 0.0 **** 0.0
4817 H 47.588444 28.348463 24.707577 H 0.0 **** 0.0
4818 H 47.283903 28.87307 23.19142 H 0.0 **** 0.0
4819 O 30.625368 3.748386 10.651955 O 0.0 **** 0.0
4820 H 30.434435 2.824937 10.319015 H 0.0 **** 0.0
4821 H 31.186376 4.234814 9.982089 H 0.0 **** 0.0
4822 O 11.13914 24.729811 5.49633 O 0.0 **** 0.0
4823 H 11.845791 24.02597 5.423425 H 0.0 **** 0.0
4824 H 10.627546 24.601684 6.345988 H 0.0 **** 0.0
4825 O 28.400314 8.668206 11.994709 O 0.0 **** 0.0
4826 H 28.447944 8.501128 11.009885 H 0.0 **** 0.0
4827 H 28.606927 7.82239 12.486613 H 0.0 **** 0.0
4828 O 17.685959 18.261692 25.839166 O 0.0 **** 0.0
4829 H 16.690798 18.164737 25.85697 H 0.0 **** 0.0
4830 H 17.925698 19.231906 25.80347 H 0.0 **** 0.0
4831 O 16.409867 13.893042 23.118318 O 0.0 **** 0.0
4832 H 16.327686 13.130352 23.759889 H 0.0 **** 0.0
4833 H 16.780053 14.690705 23.594509 H 0.0 **** 0.0
4834 O 20.955228 47.568 4.628339 O 0.0 **** 0.0
4835 H 20.040675 47.394725 4.993897 H 0.0 **** 0.0
4836 H 21.523833 46.754974 4.753794 H 0.0 **** 0.0
4837 O 22.248246 5.974442 36.085919 O 0.0 **** 0.0
4838 H 22.178585 5.116899 36.595655 H 0.0 **** 0.0
4839 H 21.358923 6.198253 35.687075 H 0.0 **** 0.0
4840 O 39.856957 12.270626 5.994805 O 0.0 **** 0.0
4841 H 40.716526 12.197226 6.500588 H 0.0 **** 0.0
4842 H 39.721874 13.217503 5.702846 H 0.0 **** 0.0
4843 O 26.864986 22.542767 7.980589 O 0.0 **** 0.0
4844 H 27.276636 23.19662 8.615477 H 0.0 **** 0.0
4845 H 26.216975 23.018555 7.385802 H 0.0 **** 0.0
4846 O 14.582612 0.760215 24.908807 O 0.0 **** 0.0
4847 H 14.929032 -0.000345 25.457992 H 0.0 **** 0.0
4848 H 13.609281 0.8912 25.09731 H 0.0 **** 0.0
4849 O 27.182856 26.972955 12.971773 O 0.0 **** 0.0
4850 H 26.255442 26.69738 13.224804 H 0.0 **** 0.0
4851 H 27.601537 26.258526 12.411095 H 0.0 **** 0.0
4852 O 10.248028 37.958975 10.147398 O 0.0 **** 0.0
4853 H 10.446206 38.054651 11.122916 H 0.0 **** 0.0
4854 H 10.704532 37.142819 9.793059 H 0.0 **** 0.0
4855 O 25.624953 7.6434 18.946157 O 0.0 **** 0.0
4856 H 25.672041 6.681805 18.675638 H 0.0 **** 0.0
4857 H 24.858353 7.775667 19.574563 H 0.0 **** 0.0
4858 O 16.718471 39.874681 30.990768 O 0.0 **** 0.0
4859 H 15.788555 39.507678 31.01583 H 0.0 **** 0.0
4860 H 17.304972 39.260642 30.46253 H 0.0 **** 0.0
4861 O 20.933738 22.540925 23.371715 O 0.0 **** 0.0
4862 H 21.76625 22.914571 23.780831 H 0.0 **** 0.0
4863 H 20.381714 23.286903 22.999092 H 0.0 **** 0.0
4864 O 33.956473 38.116708 8.531937 O 0.0 **** 0.0
4865 H 33.325803 37.679907 9.173439 H 0.0 **** 0.0
4866 H 34.698623 38.554096 9.039842 H 0.0 **** 0.0
4867 O 38.786377 44.822515 14.110339 O 0.0 **** 0.0
4868 H 39.344645 45.651891 14.087186 H 0.0 **** 0.0
4869 H 39.079556 44.244587 14.871988 H 0.0 **** 0.0
4870 O 3.136205 25.969322 30.129456 O 0.0 **** 0.0
4871 H 3.873664 26.64337 30.172764 H 0.0 **** 0.0
4872 H 2.261152 26.43962 30.014713 H 0.0 **** 0.0
4873 O 7.182827 36.894867 24.483306 O 0.0 **** 0.0
4874 H 7.670044 37.681766 24.862085 H 0.0 **** 0.0
4875 H 6.229624 37.144029 24.311887 H 0.0 **** 0.0
4876 O 15.892418 35.959841 5.552527 O 0.0 **** 0.0
4877 H 15.386961 35.148674 5.258273 H 0.0 **** 0.0
4878 H 16.620654 35.688604 6.181944 H 0.0 **** 0.0
4879 O 42.245089 15.31961 13.851869 O 0.0 **** 0.0
4880 H 42.788848 14.770021 13.217564 H 0.0 **** 0.0
4881 H 42.511884 15.105454 14.791561 H 0.0 **** 0.0
4882 O 13.531575 41.321017 12.456206 O 0.0 **** 0.0
4883 H 13.692624 42.1377 11.901991 H 0.0 **** 0.0
4884 H 12.856819 41.526968 13.164974 H 0.0 **** 0.0
4885 O 24.401011 17.733852 1.629794 O 0.0 **** 0.0
4886 H 24.765537 16.949849 1.127277 H 0.0 **** 0.0
4887 H 23.817805 18.275723 1.024559 H 0.0 **** 0.0
4888 O 29.080256 38.285973 13.129359 O 0.0 **** 0.0
4889 H 30.079518 38.317371 13.105862 H 0.0 **** 0.0
4890 H 28.775558 37.334565 13.084132 H 0.0 **** 0.0
4891 O 28.821566 42.45292 9.567876 O 0.0 **** 0.0
4892 H 28.551175 41.595621 9.129709 H 0.0 **** 0.0
4893 H 29.230774 42.257111 10.459094 H 0.0 **** 0.0
4894 O 18.575183 11.891935 8.784646 O 0.0 **** 0.0
4895 H 17.759004 11.694361 9.327674 H 0.0 **** 0.0
4896 H 18.630771 11.249148 8.020579 H 0.0 **** 0.0
4897 O 17.4423 34.574976 32.352388 O 0.0 **** 0.0
4898 H 17.887866 33.799275 32.799403 H 0.0 **** 0.0
4899 H 17.419274 34.422046 31.364387 H 0.0 **** 0.0
4900 O 46.919894 13.863402 24.002281 O 0.0 **** 0.0
4901 H 47.902245 13.945049 23.83381 H 0.0 **** 0.0
4902 H 46.438254 13.776822 23.130162 H 0.0 **** 0.0
4903 O 37.719591 25.793654 22.979197 O 0.0 **** 0.0
4904 H 37.809434 25.872392 21.986326 H 0.0 **** 0.0
4905 H 38.549687 25.383902 23.35749 H 0.0 **** 0.0
4906 O 2.472259 46.948697 43.17382 O 0.0 **** 0.0
4907 H 1.500458 46.827695 42.971271 H 0.0 **** 0.0
4908 H 2.866703 46.072324 43.450311 H 0.0 **** 0.0
4909 O 39.315366 2.121317 43.414907 O 0.0 **** 0.0
4910 H 40.177553 2.557582 43.672527 H 0.0 **** 0.0
4911 H 39.348749 1.150671 43.653223 H 0.0 **** 0.0
4912 O 41.937366 16.77915 22.943462 O 0.0 **** 0.0
4913 H 41.798411 15.863301 23.320258 H 0.0 **** 0.0
4914 H 41.431398 16.866773 22.085336 H 0.0 **** 0.0
4915 O 2.428859 47.001774 13.847059 O 0.0 **** 0.0
4916 H 2.762119 46.278913 14.45243 H 0.0 **** 0.0
4917 H 3.166313 47.292068 13.23718 H 0.0 **** 0.0
4918 O 27.933894 29.565571 15.879078 O 0.0 **** 0.0
4919 H 28.464145 30.404047 15.753163 H 0.0 **** 0.0
4920 H 28.152493 29.163364 16.768183 H 0.0 **** 0.0
4921 O 32.327987 20.145945 31.088656 O 0.0 **** 0.0
4922 H 31.792695 19.304225 31.159598 H 0.0 **** 0.0
4923 H 33.300894 19.930216 31.172176 H 0.0 **** 0.0
4924 O 38.510538 21.340057 1.825191 O 0.0 **** 0.0
4925 H 38.793379 21.45095 0.872423 H 0.0 **** 0.0
4926 H 37.669108 20.80092 1.862455 H 0.0 **** 0.0
4927 O 2.794063 47.424204 29.14277 O 0.0 **** 0.0
4928 H 1.98783 48.000027 29.278708 H 0.0 **** 0.0
4929 H 3.581415 47.999912 28.922087 H 0.0 **** 0.0
4930 O 40.247813 11.276077 29.99962 O 0.0 **** 0.0
4931 H 39.301246 10.953544 30.006288 H 0.0 **** 0.0
4932 H 40.265709 12.2605 30.174708 H 0.0 **** 0.0
4933 O 39.5019 19.562158 8.590026 O 0.0 **** 0.0
4934 H 39.690703 19.706509 9.561406 H 0.0 **** 0.0
4935 H 39.74687 18.6258 8.338458 H 0.0 **** 0.0
4936 O 32.624472 43.926054 41.794121 O 0.0 **** 0.0
4937 H 32.7965 44.863389 42.097224 H 0.0 **** 0.0
4938 H 32.903257 43.828269 40.838726 H 0.0 **** 0.0
4939 O 8.445334 9.495865 44.557832 O 0.0 **** 0.0
4940 H 7.556962 9.195104 44.904821 H 0.0 **** 0.0
4941 H 9.009627 8.69695 44.349577 H 0.0 **** 0.0
4942 O 18.660968 0.190738 34.00325 O 0.0 **** 0.0
4943 H 18.634107 1.179151 34.152853 H 0.0 **** 0.0
4944 H 19.057613 0.00025 33.105224 H 0.0 **** 0.0
4945 O 19.875454 4.403894 46.242731 O 0.0 **** 0.0
4946 H 19.478072 3.836265 45.521656 H 0.0 **** 0.0
4947 H 20.38256 3.824916 46.881238 H 0.0 **** 0.0
4948 O 22.611587 23.161432 11.18202 O 0.0 **** 0.0
4949 H 23.424836 23.606031 11.557548 H 0.0 **** 0.0
4950 H 22.742742 22.17004 11.184228 H 0.0 **** 0.0
4951 O 42.965389 21.155756 3.376977 O 0.0 **** 0.0
4952 H 42.697222 21.876323 4.016455 H 0.0 **** 0.0
4953 H 42.524509 20.297088 3.638467 H 0.0 **** 0.0
4954 O 10.536028 26.26689 38.002932 O 0.0 **** 0.0
4955 H 10.039523 27.077805 37.693153 H 0.0 **** 0.0
4956 H 11.413614 26.542979 38.394954 H 0.0 **** 0.0
4957 O 18.774133 0.578103 47.220091 O 0.0 **** 0.0
4958 H 17.981494 -0.001973 47.032215 H 0.0 **** 0.0
4959 H 18.575698 1.17102 48.000562 H 0.0 **** 0.0
4960 O 43.080356 35.726735 5.334944 O 0.0 **** 0.0
4961 H 43.088719 34.746817 5.13556 H 0.0 **** 0.0
4962 H 43.555212 36.219301 4.605592 H 0.0 **** 0.0
4963 O 31.797165 8.175759 4.4784 O 0.0 **** 0.0
4964 H 31.729488 9.120038 4.800613 H 0.0 **** 0.0
4965 H 32.712045 7.821963 4.673044 H 0.0 **** 0.0
4966 O 2.329174 32.47908 20.134856 O 0.0 **** 0.0
4967 H 3.313625 32.535913 20.301255 H 0.0 **** 0.0
4968 H 2.072131 31.525395 19.978398 H 0.0 **** 0.0
4969 O 30.225197 36.098093 1.948566 O 0.0 **** 0.0
4970 H 30.541498 37.041633 2.0473 H 0.0 **** 0.0
4971 H 31.002297 35.475024 2.037807 H 0.0 **** 0.0
4972 O 28.107179 47.249798 22.86272 O 0.0 **** 0.0
4973 H 27.255498 47.471721 23.337538 H 0.0 **** 0.0
4974 H 28.351888 48.000413 22.248914 H 0.0 **** 0.0
4975 O 39.448964 34.197145 23.495509 O 0.0 **** 0.0
4976 H 39.485535 35.193322 23.575248 H 0.0 **** 0.0
4977 H 38.543986 33.873676 23.771995 H 0.0 **** 0.0
4978 O 23.59109 37.602072 13.648108 O 0.0 **** 0.0
4979 H 24.485927 37.881522 13.299916 H 0.0 **** 0.0
4980 H 23.302834 38.231573 14.369703 H 0.0 **** 0.0
4981 O 20.536047 0.714484 20.542944 O 0.0 **** 0.0
4982 H 21.071863 1.520904 20.29264 H 0.0 **** 0.0
4983 H 21.148413 -0.001799 20.877624 H 0.0 **** 0.0
4984 O 22.459094 41.972422 39.827255 O 0.0 **** 0.0
4985 H 21.885377 42.481421 39.185513 H 0.0 **** 0.0
4986 H 21.983225 41.140224 40.11196 H 0.0 **** 0.0
4987 O 11.962391 44.0425 47.099372 O 0.0 **** 0.0
4988 H 12.297365 44.974696 46.962023 H 0.0 **** 0.0
4989 H 12.645448 43.390902 46.769347 H 0.0 **** 0.0
4990 O 27.906949 17.795241 4.472518 O 0.0 **** 0.0
4991 H 28.338289 17.008898 4.030169 H 0.0 **** 0.0
4992 H 27.925918 18.578838 3.851487 H 0.0 **** 0.0
4993 O 36.722428 30.900121 47.687382 O 0.0 **** 0.0
4994 H 37.63373 30.488319 47.684268 H 0.0 **** 0.0
4995 H 36.030584 30.178648 47.657522 H 0.0 **** 0.0
4996 O 10.781462 26.86635 10.656898 O 0.0 **** 0.0
4997 H 11.593396 26.863646 10.073101 H 0.0 **** 0.0
4998 H 9.961703 26.927404 10.087397 H 0.0 **** 0.0
4999 O 31.741347 0.154185 25.972872 O 0.0 **** 0.0
5000 H 32.471517 0.763996 25.664577 H 0.0 **** 0.0
5001 H 31.829497 -0.00039 26.956944 H 0.0 **** 0.0
5002 O 38.488356 34.299043 40.276415 O 0.0 **** 0.0
5003 H 38.222353 35.212167 40.585462 H 0.0 **** 0.0
5004 H 39.139359 34.379184 39.521541 H 0.0 **** 0.0
5005 O 3.132152 7.105061 35.871554 O 0.0 **** 0.0
5006 H 2.26877 7.347436 35.42896 H 0.0 **** 0.0
5007 H 3.738741 7.900099 35.876662 H 0.0 **** 0.0
5008 O 6.496372 41.36785 8.735481 O 0.0 **** 0.0
5009 H 6.764656 41.362285 7.772124 H 0.0 **** 0.0
5010 H 6.438469 40.427473 9.070746 H 0.0 **** 0.0
5011 O 35.711377 16.380103 19.658899 O 0.0 **** 0.0
5012 H 36.110847 15.923286 20.45376 H 0.0 **** 0.0
5013 H 34.725046 16.478089 19.791615 H 0.0 **** 0.0
5014 O 0.333179 4.745125 37.901162 O 0.0 **** 0.0
5015 H 0.65581 5.625673 37.553876 H 0.0 **** 0.0
5016 H 0.403677 4.056249 37.179674 H 0.0 **** 0.0
5017 O 8.73817 17.954377 5.352207 O 0.0 **** 0.0
5018 H 8.367263 17.945728 6.280871 H 0.0 **** 0.0
5019 H 8.5408 18.835645 4.922703 H 0.0 **** 0.0
5020 O 13.446061 7.724401 47.898917 O 0.0 **** 0.0
5021 H 14.114585 6.983276 47.83669 H 0.0 **** 0.0
5022 H 13.917952 8.604378 47.843936 H 0.0 **** 0.0
5023 O 43.879973 5.918369 35.723692 O 0.0 **** 0.0
5024 H 44.325933 5.677695 34.861568 H 0.0 **** 0.0
5025 H 43.252784 6.682469 35.572531 H 0.0 **** 0.0
5026 O 44.043555 21.262724 24.638111 O 0.0 **** 0.0
5027 H 44.326462 20.303957 24.666276 H 0.0 **** 0.0
5028 H 44.845319 21.842672 24.493549 H 0.0 **** 0.0
5029 O 29.192602 29.703043 44.570142 O 0.0 **** 0.0
5030 H 29.357654 28.935175 45.189173 H 0.0 **** 0.0
5031 H 28.284923 29.611701 44.160459 H 0.0 **** 0.0
5032 O 2.903842 34.536973 26.433425 O 0.0 **** 0.0
5033 H 3.142439 34.49213 27.403541 H 0.0 **** 0.0
5034 H 2.418339 35.391524 26.248786 H 0.0 **** 0.0
5035 O 6.795523 10.050367 42.259714 O 0.0 **** 0.0
5036 H 6.866195 10.959609 41.849412 H 0.0 **** 0.0
5037 H 7.712463 9.684382 42.4189 H 0.0 **** 0.0
5038 O 8.061246 46.117957 46.444938 O 0.0 **** 0.0
5039 H 7.915081 46.958167 46.967189 H 0.0 **** 0.0
5040 H 7.308473 45.991975 45.798776 H 0.0 **** 0.0
5041 O 29.8786 1.311461 24.345234 O 0.0 **** 0.0
5042 H 30.567523 1.332707 23.620668 H 0.0 **** 0.0
5043 H 29.491944 2.22599 24.464388 H 0.0 **** 0.0
5044 O 29.84248 26.823164 30.527765 O 0.0 **** 0.0
5045 H 30.263876 27.47668 29.898953 H 0.0 **** 0.0
5046 H 28.942827 27.160317 30.805282 H 0.0 **** 0.0
5047 O 43.917766 40.111661 2.160914 O 0.0 **** 0.0
5048 H 44.90378 40.040474 2.01001 H 0.0 **** 0.0
5049 H 43.745914 40.602906 3.014851 H 0.0 **** 0.0
5050 O 37.666208 4.195586 8.718222 O 0.0 **** 0.0
5051 H 38.482625 4.742479 8.532656 H 0.0 **** 0.0
5052 H 36.954149 4.423849 8.054196 H 0.0 **** 0.0
5053 O 2.884558 11.073244 42.062033 O 0.0 **** 0.0
5054 H 3.556866 11.106669 42.801592 H 0.0 **** 0.0
5055 H 2.07365 11.596101 42.324922 H 0.0 **** 0.0
5056 O 40.968526 37.294415 22.645725 O 0.0 **** 0.0
5057 H 40.595193 37.349434 23.571824 H 0.0 **** 0.0
5058 H 41.964305 37.379001 22.682246 H 0.0 **** 0.0
5059 O 11.33974 9.159383 8.88545 O 0.0 **** 0.0
5060 H 10.462883 9.017832 8.425941 H 0.0 **** 0.0
5061 H 11.601715 10.121868 8.814344 H 0.0 **** 0.0
5062 O 22.697212 20.003598 12.923885 O 0.0 **** 0.0
5063 H 21.865381 20.531582 12.752556 H 0.0 **** 0.0
5064 H 23.388307 20.239466 12.240644 H 0.0 **** 0.0
5065 O 18.516331 39.132551 42.215882 O 0.0 **** 0.0
5066 H 18.72994 40.022052 41.811874 H 0.0 **** 0.0
5067 H 19.242324 38.872753 42.852673 H 0.0 **** 0.0
5068 O 40.687095 26.314715 3.238057 O 0.0 **** 0.0
5069 H 40.297172 27.176603 3.562361 H 0.0 **** 0.0
5070 H 40.073655 25.90443 2.563208 H 0.0 **** 0.0
5071 O 41.083132 41.548635 14.004631 O 0.0 **** 0.0
5072 H 40.366169 41.388798 14.683218 H 0.0 **** 0.0
5073 H 41.768339 42.170483 14.38392 H 0.0 **** 0.0
5074 O 24.366021 46.88475 7.388915 O 0.0 **** 0.0
5075 H 23.757724 46.106365 7.544331 H 0.0 **** 0.0
5076 H 23.92609 47.532524 6.766891 H 0.0 **** 0.0
5077 O 40.825536 17.104617 2.564017 O 0.0 **** 0.0
5078 H 40.793918 16.160589 2.235574 H 0.0 **** 0.0
5079 H 41.281945 17.678854 1.884307 H 0.0 **** 0.0
5080 O 45.859649 15.495402 3.499395 O 0.0 **** 0.0
5081 H 45.502734 16.049297 4.251642 H 0.0 **** 0.0
5082 H 45.888209 16.045574 2.664795 H 0.0 **** 0.0
5083 O 43.177499 13.080231 6.345057 O 0.0 **** 0.0
5084 H 43.207351 12.18498 6.789689 H 0.0 **** 0.0
5085 H 42.569154 13.038565 5.552439 H 0.0 **** 0.0
5086 O 37.471219 45.673787 4.591407 O 0.0 **** 0.0
5087 H 36.51399 45.65501 4.302577 H 0.0 **** 0.0
5088 H 37.929648 44.841317 4.280119 H 0.0 **** 0.0
5089 O 28.509098 2.235731 9.099814 O 0.0 **** 0.0
5090 H 28.657823 2.854039 8.328038 H 0.0 **** 0.0
5091 H 28.994974 1.376919 8.937244 H 0.0 **** 0.0
5092 O 30.19621 5.562157 32.203253 O 0.0 **** 0.0
5093 H 29.808517 5.341929 31.308124 H 0.0 **** 0.0
5094 H 30.20892 4.739955 32.772362 H 0.0 **** 0.0
5095 O 26.931403 6.536724 24.634723 O 0.0 **** 0.0
5096 H 26.527054 7.450676 24.599275 H 0.0 **** 0.0
5097 H 27.928384 6.613657 24.647891 H 0.0 **** 0.0
5098 O 32.49635 27.598653 5.658236 O 0.0 **** 0.0
5099 H 32.98212 28.215023 5.038415 H 0.0 **** 0.0
5100 H 32.740861 27.815619 6.60333 H 0.0 **** 0.0
5101 O 17.162551 30.920989 23.216895 O 0.0 **** 0.0
5102 H 16.225254 30.578838 23.283768 H 0.0 **** 0.0
5103 H 17.742477 30.434066 23.870083 H 0.0 **** 0.0
5104 O 9.308714 11.006478 39.392146 O 0.0 **** 0.0
5105 H 10.104891 11.609786 39.345412 H 0.0 **** 0.0
5106 H 8.472867 11.553359 39.343729 H 0.0 **** 0.0
5107 O 41.47123 43.141098 19.920391 O 0.0 **** 0.0
5108 H 42.137651 42.616744 19.390299 H 0.0 **** 0.0
5109 H 40.890204 42.513871 20.439099 H 0.0 **** 0.0
5110 O 32.65073 5.387508 23.880979 O 0.0 **** 0.0
5111 H 33.290439 5.310744 23.116163 H 0.0 **** 0.0
5112 H 33.149457 5.296704 24.743005 H 0.0 **** 0.0
5113 O 6.7891 45.342915 41.406043 O 0.0 **** 0.0
5114 H 6.228098 45.843823 42.065156 H 0.0 **** 0.0
5115 H 6.983161 44.428241 41.760693 H 0.0 **** 0.0
5116 O 40.10963 15.170784 21.623117 O 0.0 **** 0.0
5117 H 39.125202 15.089804 21.779339 H 0.0 **** 0.0
5118 H 40.373618 14.590647 20.852524 H 0.0 **** 0.0
5119 O 5.560497 5.191442 11.211832 O 0.0 **** 0.0
5120 H 6.261945 5.897069 11.312447 H 0.0 **** 0.0
5121 H 5.001379 5.156807 12.040235 H 0.0 **** 0.0
5122 O 21.386694 45.977967 42.119401 O 0.0 **** 0.0
5123 H 22.165139 45.362447 42.242777 H 0.0 **** 0.0
5124 H 21.718788 46.908734 41.966267 H 0.0 **** 0.0
5125 O 41.822482 48.032465 12.350664 O 0.0 **** 0.0
5126 H 42.105194 47.953333 11.394696 H 0.0 **** 0.0
5127 H 40.856416 47.787803 12.43385 H 0.0 **** 0.0
5128 O 19.042386 46.924764 14.55417 O 0.0 **** 0.0
5129 H 19.678432 46.636281 15.269912 H 0.0 **** 0.0
5130 H 18.460873 47.660346 14.901767 H 0.0 **** 0.0
5131 O 33.214308 32.011771 30.256992 O 0.0 **** 0.0
5132 H 32.418688 31.72909 30.792849 H 0.0 **** 0.0
5133 H 33.18568 33.00118 30.11447 H 0.0 **** 0.0
5134 O 23.659038 12.105321 31.450673 O 0.0 **** 0.0
5135 H 23.465296 11.355913 30.817495 H 0.0 **** 0.0
5136 H 24.598179 12.024972 31.784772 H 0.0 **** 0.0
5137 O 18.957215 35.625643 35.792943 O 0.0 **** 0.0
5138 H 18.802558 34.797959 36.332465 H 0.0 **** 0.0
5139 H 19.938996 35.752502 35.651256 H 0.0 **** 0.0
5140 O 37.728028 40.43779 32.462762 O 0.0 **** 0.0
5141 H 38.402312 41.163296 32.324757 H 0.0 **** 0.0
5142 H 36.871523 40.836753 32.790316 H 0.0 **** 0.0
5143 O 26.184171 6.691256 47.332003 O 0.0 **** 0.0
5144 H 25.309142 6.802668 47.803145 H 0.0 **** 0.0
5145 H 26.927725 6.713312 48.000363 H 0.0 **** 0.0
5146 O 32.350527 42.310239 43.754392 O 0.0 **** 0.0
5147 H 32.853608 43.163292 43.893218 H 0.0 **** 0.0
5148 H 31.431988 42.398522 44.13982 H 0.0 **** 0.0
5149 O 36.358798 7.272009 2.965023 O 0.0 **** 0.0
5150 H 35.478736 7.41823 2.513167 H 0.0 **** 0.0
5151 H 37.09432 7.616303 2.381472 H 0.0 **** 0.0
5152 O 17.434145 2.337495 39.464424 O 0.0 **** 0.0
5153 H 16.968828 1.458122 39.363204 H 0.0 **** 0.0
5154 H 18.413455 2.183197 39.5956 H 0.0 **** 0.0
5155 O 29.343362 2.166941 47.24387 O 0.0 **** 0.0
5156 H 30.02239 2.829248 46.927114 H 0.0 **** 0.0
5157 H 29.795905 1.30029 47.454069 H 0.0 **** 0.0
5158 O 29.741355 38.56483 38.556015 O 0.0 **** 0.0
5159 H 29.066164 39.247773 38.834885 H 0.0 **** 0.0
5160 H 30.583184 39.024593 38.273163 H 0.0 **** 0.0
5161 O 32.486816 11.851248 3.752076 O 0.0 **** 0.0
5162 H 32.285138 11.025936 3.224583 H 0.0 **** 0.0
5163 H 33.293623 11.693903 4.321609 H 0.0 **** 0.0
5164 O 9.043494 -0.032936 41.819808 O 0.0 **** 0.0
5165 H 9.915881 0.447534 41.729521 H 0.0 **** 0.0
5166 H 8.46259 0.180541 41.034288 H 0.0 **** 0.0
5167 O 23.314803 42.364356 7.009821 O 0.0 **** 0.0
5168 H 22.652494 41.665622 6.739302 H 0.0 **** 0.0
5169 H 23.593425 42.888757 6.205187 H 0.0 **** 0.0
5170 O 41.334103 27.966907 45.185357 O 0.0 **** 0.0
5171 H 40.69034 27.340092 44.74634 H 0.0 **** 0.0
5172 H 40.91382 28.870286 45.270983 H 0.0 **** 0.0
5173 O 9.323126 31.695074 2.203347 O 0.0 **** 0.0
5174 H 9.648679 32.539384 1.777649 H 0.0 **** 0.0
5175 H 8.385886 31.512034 1.906464 H 0.0 **** 0.0
5176 O 16.748071 19.167876 28.287555 O 0.0 **** 0.0
5177 H 16.099186 19.537214 28.952836 H 0.0 **** 0.0
5178 H 17.114752 19.913079 27.730527 H 0.0 **** 0.0
5179 O 26.817742 43.266248 17.427116 O 0.0 **** 0.0
5180 H 27.285418 43.03516 18.280311 H 0.0 **** 0.0
5181 H 27.413401 43.840609 16.865545 H 0.0 **** 0.0
5182 O 18.236745 42.051544 40.292164 O 0.0 **** 0.0
5183 H 18.900865 42.65658 39.852916 H 0.0 **** 0.0
5184 H 17.654177 42.585236 40.905232 H 0.0 **** 0.0
5185 O 12.625545 22.190628 29.798646 O 0.0 **** 0.0
5186 H 12.999432 21.972882 30.700233 H 0.0 **** 0.0
5187 H 12.323827 23.143951 29.784348 H 0.0 **** 0.0
5188 O 47.413928 17.539166 18.414186 O 0.0 **** 0.0
5189 H 47.945996 18.208835 17.896006 H 0.0 **** 0.0
5190 H 47.998586 17.109466 19.10237 H 0.0 **** 0.0
5191 O 35.633984 33.90061 14.591737 O 0.0 **** 0.0
5192 H 35.679363 33.211413 15.314931 H 0.0 **** 0.0
5193 H 35.875065 33.481501 13.716356 H 0.0 **** 0.0
5194 O 23.731575 9.327029 14.912122 O 0.0 **** 0.0
5195 H 24.723137 9.441859 14.972809 H 0.0 **** 0.0
5196 H 23.513834 8.355756 14.815786 H 0.0 **** 0.0
5197 O 32.94183 3.263806 37.039562 O 0.0 **** 0.0
5198 H 33.800511 3.775023 37.002321 H 0.0 **** 0.0
5199 H 32.252148 3.805336 37.520338 H 0.0 **** 0.0
5200 O 17.980611 30.139992 46.287621 O 0.0 **** 0.0
5201 H 17.940109 30.092359 47.285696 H 0.0 **** 0.0
5202 H 17.057637 30.054964 45.912184 H 0.0 **** 0.0
5203 O 41.669665 37.990649 12.256781 O 0.0 **** 0.0
5204 H 41.245772 37.088151 12.333433 H 0.0 **** 0.0
5205 H 42.615426 37.943025 12.578233 H 0.0 **** 0.0
5206 O 23.817666 47.314731 38.227583 O 0.0 **** 0.0
5207 H 22.828958 47.177369 38.167159 H 0.0 **** 0.0
5208 H 24.15635 47.68395 37.362116 H 0.0 **** 0.0
5209 O 37.846327 24.222448 9.688011 O 0.0 **** 0.0
5210 H 36.902759 24.553155 9.668662 H 0.0 **** 0.0
5211 H 37.848514 23.223162 9.726565 H 0.0 **** 0.0
5212 O 21.784809 39.822803 16.065932 O 0.0 **** 0.0
5213 H 21.276298 40.010016 16.906426 H 0.0 **** 0.0
5214 H 22.373922 39.026458 16.203202 H 0.0 **** 0.0
5215 O 15.846379 15.002086 31.841003 O 0.0 **** 0.0
5216 H 16.443813 14.20013 31.842379 H 0.0 **** 0.0
5217 H 14.891287 14.706128 31.824528 H 0.0 **** 0.0
5218 O 37.19573 7.247179 7.920872 O 0.0 **** 0.0
5219 H 37.593452 6.442122 7.480686 H 0.0 **** 0.0
5220 H 37.927995 7.832897 8.268416 H 0.0 **** 0.0
5221 O 7.559652 41.251793 13.636193 O 0.0 **** 0.0
5222 H 6.601286 40.966562 13.620708 H 0.0 **** 0.0
5223 H 8.14484 40.464628 13.441286 H 0.0 **** 0.0
5224 O 24.575222 46.202664 4.846978 O 0.0 **** 0.0
5225 H 24.983949 45.337646 4.555861 H 0.0 **** 0.0
5226 H 23.646581 46.037359 5.17919 H 0.0 **** 0.0
5227 O 9.491998 23.203371 17.429693 O 0.0 **** 0.0
5228 H 9.857098 24.134255 17.414879 H 0.0 **** 0.0
5229 H 10.247803 22.548684 17.415359 H 0.0 **** 0.0
5230 O 2.209613 8.145821 38.712641 O 0.0 **** 0.0
5231 H 1.813912 7.24977 38.511205 H 0.0 **** 0.0
5232 H 3.202259 8.060108 38.798491 H 0.0 **** 0.0
5233 O 24.082914 5.738909 19.868803 O 0.0 **** 0.0
5234 H 23.921467 4.77309 19.665845 H 0.0 **** 0.0
5235 H 23.235444 6.156851 20.19619 H 0.0 **** 0.0
5236 O 38.038225 37.200026 46.750563 O 0.0 **** 0.0
5237 H 37.517289 36.73209 47.464513 H 0.0 **** 0.0
5238 H 37.807944 36.808984 45.859429 H 0.0 **** 0.0
5239 O 29.790675 43.40179 32.233148 O 0.0 **** 0.0
5240 H 29.307041 42.937985 32.975473 H 0.0 **** 0.0
5241 H 30.654616 42.931398 32.053145 H 0.0 **** 0.0
5242 O 8.193169 15.767633 9.473252 O 0.0 **** 0.0
5243 H 7.64761 15.06858 9.010918 H 0.0 **** 0.0
5244 H 7.589287 16.482637 9.825614 H 0.0 **** 0.0
5245 O 6.74594 5.744165 1.402341 O 0.0 **** 0.0
5246 H 6.708754 5.822792 2.398583 H 0.0 **** 0.0
5247 H 6.758364 4.778021 1.144518 H 0.0 **** 0.0
5248 O 16.6515 25.511822 22.162096 O 0.0 **** 0.0
5249 H 17.542699 25.402037 22.602296 H 0.0 **** 0.0
5250 H 16.781044 25.68258 21.185303 H 0.0 **** 0.0
5251 O 30.995718 9.926077 8.811472 O 0.0 **** 0.0
5252 H 30.857672 10.797365 8.340449 H 0.0 **** 0.0
5253 H 31.050329 10.085137 9.797262 H 0.0 **** 0.0
5254 O 10.787815 12.244901 28.41207 O 0.0 **** 0.0
5255 H 10.578791 11.346477 28.798343 H 0.0 **** 0.0
5256 H 11.6168 12.606472 28.838816 H 0.0 **** 0.0
5257 O 34.381229 33.532398 5.389694 O 0.0 **** 0.0
5258 H 34.976119 33.83075 6.136123 H 0.0 **** 0.0
5259 H 34.820167 32.783908 4.892543 H 0.0 **** 0.0
5260 O 2.665942 4.643076 31.399421 O 0.0 **** 0.0
5261 H 3.042494 4.38348 32.288736 H 0.0 **** 0.0
5262 H 3.305491 5.253486 30.932045 H 0.0 **** 0.0
5263 O 16.240111 12.717414 42.791494 O 0.0 **** 0.0
5264 H 15.552649 12.036858 42.537913 H 0.0 **** 0.0
5265 H 15.885633 13.634068 42.606689 H 0.0 **** 0.0
5266 O 33.904986 24.529855 1.545669 O 0.0 **** 0.0
5267 H 34.036072 25.132661 2.332755 H 0.0 **** 0.0
5268 H 34.795054 24.219717 1.21152 H 0.0 **** 0.0
5269 O 24.572548 41.600635 34.52079 O 0.0 **** 0.0
5270 H 23.59113 41.775312 34.600597 H 0.0 **** 0.0
5271 H 24.896394 41.919202 33.629891 H 0.0 **** 0.0
5272 O 40.352374 18.754817 17.835307 O 0.0 **** 0.0
5273 H 40.734882 17.854209 18.04184 H 0.0 **** 0.0
5274 H 39.474264 18.859032 18.302346 H 0.0 **** 0.0
5275 O 38.343995 38.57231 44.350216 O 0.0 **** 0.0
5276 H 38.235098 38.967435 45.262401 H 0.0 **** 0.0
5277 H 37.507291 38.087772 44.094848 H 0.0 **** 0.0
5278 O 1.652884 26.280688 9.743485 O 0.0 **** 0.0
5279 H 0.85269 25.946013 9.245744 H 0.0 **** 0.0
5280 H 1.560242 27.263895 9.900914 H 0.0 **** 0.0
5281 O 17.924945 22.352059 20.56833 O 0.0 **** 0.0
5282 H 17.935318 23.278503 20.191957 H 0.0 **** 0.0
5283 H 18.864136 22.027602 20.681072 H 0.0 **** 0.0
5284 O 19.566183 20.451843 39.864968 O 0.0 **** 0.0
5285 H 19.206421 21.349437 39.610097 H 0.0 **** 0.0
5286 H 18.80648 19.831088 40.058821 H 0.0 **** 0.0
5287 O 38.706982 8.966239 28.575372 O 0.0 **** 0.0
5288 H 39.068188 8.034466 28.538066 H 0.0 **** 0.0
5289 H 37.787606 8.983263 28.182282 H 0.0 **** 0.0
5290 O 19.701289 39.922005 1.99232 O 0.0 **** 0.0
5291 H 20.617874 40.310398 2.08764 H 0.0 **** 0.0
5292 H 19.682979 39.299056 1.210231 H 0.0 **** 0.0
5293 O 41.034024 35.394544 1.005045 O 0.0 **** 0.0
5294 H 40.217242 34.827735 0.897074 H 0.0 **** 0.0
5295 H 41.842299 34.807957 1.056717 H 0.0 **** 0.0
5296 O 10.026756 6.675066 28.3042 O 0.0 **** 0.0
5297 H 9.051859 6.666109 28.08158 H 0.0 **** 0.0
5298 H 10.337411 5.740621 28.478464 H 0.0 **** 0.0
5299 O 43.421145 27.688392 14.022048 O 0.0 **** 0.0
5300 H 43.741516 28.627496 14.146585 H 0.0 **** 0.0
5301 H 44.207545 27.076403 13.937738 H 0.0 **** 0.0
5302 O 7.786292 29.159033 5.502902 O 0.0 **** 0.0
5303 H 7.007058 29.326654 6.106856 H 0.0 **** 0.0
5304 H 8.111721 30.027913 5.129797 H 0.0 **** 0.0
5305 O 24.874942 0.795722 12.083735 O 0.0 **** 0.0
5306 H 25.155302 1.754691 12.126623 H 0.0 **** 0.0
5307 H 23.87665 0.739276 12.100729 H 0.0 **** 0.0
5308 O 1.291423 8.261687 1.828828 O 0.0 **** 0.0
5309 H 0.707207 7.457342 1.72027 H 0.0 **** 0.0
5310 H 1.761808 8.215443 2.710113 H 0.0 **** 0.0
5311 O 33.674191 3.752839 39.200856 O 0.0 **** 0.0
5312 H 34.591211 3.397569 39.019418 H 0.0 **** 0.0
5313 H 33.644231 4.727314 38.978225 H 0.0 **** 0.0
5314 O 6.681557 5.895312 34.461213 O 0.0 **** 0.0
5315 H 5.84718 5.535014 34.878423 H 0.0 **** 0.0
5316 H 6.645979 5.756649 33.47148 H 0.0 **** 0.0
5317 O 5.843026 3.032517 45.627608 O 0.0 **** 0.0
5318 H 5.048841 3.636417 45.695707 H 0.0 **** 0.0
5319 H 6.571885 3.372107 46.222173 H 0.0 **** 0.0
5320 O 42.750128 20.090934 18.249217 O 0.0 **** 0.0
5321 H 43.055438 20.906113 17.756945 H 0.0 **** 0.0
5322 H 42.434537 19.40458 17.593944 H 0.0 **** 0.0
5323 O 20.45824 25.867141 21.249519 O 0.0 **** 0.0
5324 H 19.826456 26.386327 20.673882 H 0.0 **** 0.0
5325 H 20.013392 25.026496 21.558532 H 0.0 **** 0.0
5326 O 9.02117 7.131488 31.638536 O 0.0 **** 0.0
5327 H 8.078359 7.405391 31.44841 H 0.0 **** 0.0
5328 H 9.498578 6.959807 30.776752 H 0.0 **** 0.0
5329 O 27.214475 5.770932 12.577278 O 0.0 **** 0.0
5330 H 27.163217 4.890146 13.048077 H 0.0 **** 0.0
5331 H 28.002202 5.77418 11.961211 H 0.0 **** 0.0
5332 O 5.604949 22.635665 38.400306 O 0.0 **** 0.0
5333 H 5.657589 21.65552 38.208973 H 0.0 **** 0.0
5334 H 6.152567 23.136032 37.729627 H 0.0 **** 0.0
5335 O 4.594539 9.343608 26.575304 O 0.0 **** 0.0
5336 H 5.156736 9.878082 27.206442 H 0.0 **** 0.0
5337 H 5.178508 8.721089 26.054235 H 0.0 **** 0.0
5338 O 37.585177 42.335673 43.473045 O 0.0 **** 0.0
5339 H 38.539558 42.118683 43.267775 H 0.0 **** 0.0
5340 H 37.245677 41.712145 44.177329 H 0.0 **** 0.0
5341 O 38.154857 7.765294 42.721428 O 0.0 **** 0.0
5342 H 38.533978 7.004597 42.194484 H 0.0 **** 0.0
5343 H 38.8978 8.357453 43.033592 H 0.0 **** 0.0
5344 O 0.916772 45.045671 35.607401 O 0.0 **** 0.0
5345 H 0.861925 44.264433 34.985532 H 0.0 **** 0.0
5346 H -0.003895 45.389142 35.793043 H 0.0 **** 0.0
5347 O 32.775883 9.432919 27.907603 O 0.0 **** 0.0
5348 H 32.124701 8.674418 27.934088 H 0.0 **** 0.0
5349 H 33.242865 9.502188 28.789189 H 0.0 **** 0.0
5350 O 39.694891 43.07305 4.996391 O 0.0 **** 0.0
5351 H 39.76262 43.618528 5.831813 H 0.0 **** 0.0
5352 H 40.024936 42.146262 5.175829 H 0.0 **** 0.0
5353 O 36.643116 44.003243 10.38234 O 0.0 **** 0.0
5354 H 36.416029 43.08105 10.695476 H 0.0 **** 0.0
5355 H 35.816415 44.565899 10.375516 H 0.0 **** 0.0
5356 O 4.734557 2.594195 41.501929 O 0.0 **** 0.0
5357 H 4.34449 2.189521 40.674796 H 0.0 **** 0.0
5358 H 4.083427 3.244125 41.893953 H 0.0 **** 0.0
5359 O 32.790319 21.304055 38.258257 O 0.0 **** 0.0
5360 H 33.409657 20.555178 38.022321 H 0.0 **** 0.0
5361 H 31.857326 20.952746 38.336801 H 0.0 **** 0.0
5362 O 17.079886 21.795355 44.81886 O 0.0 **** 0.0
5363 H 18.010266 21.430898 44.859188 H 0.0 **** 0.0
5364 H 16.43865 21.111376 45.166784 H 0.0 **** 0.0
5365 O 13.543722 34.905468 39.742036 O 0.0 **** 0.0
5366 H 12.549281 34.984427 39.812141 H 0.0 **** 0.0
5367 H 13.939469 35.809978 39.582945 H 0.0 **** 0.0
5368 O 35.702089 29.964702 38.991172 O 0.0 **** 0.0
5369 H 35.865724 30.815547 38.491822 H 0.0 **** 0.0
5370 H 36.361125 29.272942 38.69587 H 0.0 **** 0.0
5371 O 35.723516 14.416638 0.283588 O 0.0 **** 0.0
5372 H 36.632387 14.035701 0.113578 H 0.0 **** 0.0
5373 H 35.620401 14.610059 1.259303 H 0.0 **** 0.0
5374 O 38.557273 41.502526 10.023554 O 0.0 **** 0.0
5375 H 39.249471 40.918097 9.600037 H 0.0 **** 0.0
5376 H 37.809252 40.936114 10.369538 H 0.0 **** 0.0
5377 O 44.687741 33.416966 22.311843 O 0.0 **** 0.0
5378 H 44.487267 34.396568 22.327747 H 0.0 **** 0.0
5379 H 43.83116 32.901995 22.278126 H 0.0 **** 0.0
5380 O 14.94212 42.220148 30.427066 O 0.0 **** 0.0
5381 H 15.522554 41.483906 30.079064 H 0.0 **** 0.0
5382 H 14.138381 42.31671 29.839917 H 0.0 **** 0.0
5383 O 14.914136 5.959594 45.741392 O 0.0 **** 0.0
5384 H 13.915742 5.931035 45.691821 H 0.0 **** 0.0
5385 H 15.264415 5.043683 45.937538 H 0.0 **** 0.0
5386 O 18.064863 47.040724 46.196386 O 0.0 **** 0.0
5387 H 19.019658 47.280185 46.372704 H 0.0 **** 0.0
5388 H 17.587726 46.911332 47.065673 H 0.0 **** 0.0
5389 O 10.685312 42.237748 15.292148 O 0.0 **** 0.0
5390 H 10.178407 41.453328 15.649634 H 0.0 **** 0.0
5391 H 10.92742 42.070591 14.336373 H 0.0 **** 0.0
5392 O 6.319163 23.076006 5.973804 O 0.0 **** 0.0
5393 H 6.378356 22.411521 6.718799 H 0.0 **** 0.0
5394 H 7.03588 22.888344 5.302117 H 0.0 **** 0.0
5395 O 28.537613 3.433018 18.343427 O 0.0 **** 0.0
5396 H 28.385683 3.458368 19.331525 H 0.0 **** 0.0
5397 H 28.905513 4.312071 18.040147 H 0.0 **** 0.0
5398 O 39.529659 8.710667 1.224538 O 0.0 **** 0.0
5399 H 39.253375 8.551601 2.172393 H 0.0 **** 0.0
5400 H 39.716927 7.834431 0.78046 H 0.0 **** 0.0
5401 O 11.23467 0.880038 2.924471 O 0.0 **** 0.0
5402 H 11.694018 2e-05 2.80351 H 0.0 **** 0.0
5403 H 10.352174 0.86273 2.454403 H 0.0 **** 0.0
5404 O 4.242945 11.72621 38.873309 O 0.0 **** 0.0
5405 H 3.801591 10.835002 38.978274 H 0.0 **** 0.0
5406 H 5.060289 11.628519 38.305445 H 0.0 **** 0.0
5407 O 14.551446 33.499271 28.157831 O 0.0 **** 0.0
5408 H 14.302281 32.777408 27.512158 H 0.0 **** 0.0
5409 H 14.889735 33.087365 29.003973 H 0.0 **** 0.0
5410 O 2.491029 43.640694 22.202513 O 0.0 **** 0.0
5411 H 1.500913 43.761511 22.274188 H 0.0 **** 0.0
5412 H 2.917412 43.855043 23.081327 H 0.0 **** 0.0
5413 O 3.618439 11.606886 23.219974 O 0.0 **** 0.0
5414 H 2.981409 11.345018 23.945012 H 0.0 **** 0.0
5415 H 3.699084 12.603239 23.191015 H 0.0 **** 0.0
5416 O 9.413195 47.330381 18.407996 O 0.0 **** 0.0
5417 H 8.618017 47.909457 18.588068 H 0.0 **** 0.0
5418 H 9.478197 47.149263 17.426653 H 0.0 **** 0.0
5419 O 4.781321 34.175588 20.582099 O 0.0 **** 0.0
5420 H 4.149913 34.478727 21.295888 H 0.0 **** 0.0
5421 H 5.404433 34.9223 20.349256 H 0.0 **** 0.0
5422 O 19.419643 19.231161 29.582523 O 0.0 **** 0.0
5423 H 19.149925 19.863136 30.309106 H 0.0 **** 0.0
5424 H 20.367065 19.411881 29.318334 H 0.0 **** 0.0
5425 O 12.8021 24.816894 14.168731 O 0.0 **** 0.0
5426 H 13.18565 25.730978 14.300655 H 0.0 **** 0.0
5427 H 11.981109 24.8787 13.60109 H 0.0 **** 0.0
5428 O 16.099467 21.817978 47.260549 O 0.0 **** 0.0
5429 H 16.309626 20.861677 47.463984 H 0.0 **** 0.0
5430 H 16.930915 22.285242 46.959849 H 0.0 **** 0.0
5431 O 47.463552 19.362856 9.69813 O 0.0 **** 0.0
5432 H 47.20846 20.228249 9.266753 H 0.0 **** 0.0
5433 H 47.235615 19.395639 10.671286 H 0.0 **** 0.0
5434 O 36.504227 15.842652 41.344646 O 0.0 **** 0.0
5435 H 36.406376 16.837058 41.385194 H 0.0 **** 0.0
5436 H 35.598839 15.418071 41.352823 H 0.0 **** 0.0
5437 O 34.296488 18.248779 32.177351 O 0.0 **** 0.0
5438 H 33.384036 17.843908 32.117564 H 0.0 **** 0.0
5439 H 34.714471 18.264093 31.26899 H 0.0 **** 0.0
5440 O 15.262412 4.370123 4.206923 O 0.0 **** 0.0
5441 H 14.719789 3.677325 3.731892 H 0.0 **** 0.0
5442 H 14.658143 5.089461 4.549671 H 0.0 **** 0.0
5443 O 25.336427 12.183977 28.71614 O 0.0 **** 0.0
5444 H 25.267326 12.971887 29.328093 H 0.0 **** 0.0
5445 H 24.641306 11.508603 28.962594 H 0.0 **** 0.0
5446 O 27.368609 1.111651 19.661369 O 0.0 **** 0.0
5447 H 26.589931 1.574608 20.084919 H 0.0 **** 0.0
5448 H 27.870298 0.598445 20.357781 H 0.0 **** 0.0
5449 O 28.570006 32.811137 16.715758 O 0.0 **** 0.0
5450 H 27.731945 32.265634 16.703808 H 0.0 **** 0.0
5451 H 29.253157 32.359987 17.290067 H 0.0 **** 0.0
5452 O 21.471625 20.112748 17.545971 O 0.0 **** 0.0
5453 H 21.229626 19.333678 18.124373 H 0.0 **** 0.0
5454 H 22.384611 19.972453 17.162779 H 0.0 **** 0.0
5455 O 35.131354 46.851396 9.056407 O 0.0 **** 0.0
5456 H 34.571264 46.396127 9.748572 H 0.0 **** 0.0
5457 H 35.931488 46.287596 8.85152 H 0.0 **** 0.0
5458 O 40.964909 23.343168 44.834947 O 0.0 **** 0.0
5459 H 41.024138 24.337772 44.920486 H 0.0 **** 0.0
5460 H 41.886345 22.955384 44.809627 H 0.0 **** 0.0
5461 O 46.875422 30.910915 46.795779 O 0.0 **** 0.0
5462 H 47.80621 30.88614 46.430972 H 0.0 **** 0.0
5463 H 46.637131 31.851583 47.037489 H 0.0 **** 0.0
5464 O 46.603534 8.428666 19.744659 O 0.0 **** 0.0
5465 H 45.870358 8.617022 19.091178 H 0.0 **** 0.0
5466 H 46.389028 8.861735 20.62016 H 0.0 **** 0.0
5467 O 19.827417 22.183924 17.199831 O 0.0 **** 0.0
5468 H 19.579497 21.215993 17.241158 H 0.0 **** 0.0
5469 H 18.99732 22.741437 17.213264 H 0.0 **** 0.0
5470 O 22.556133 21.083384 21.638248 O 0.0 **** 0.0
5471 H 23.528042 21.013895 21.413244 H 0.0 **** 0.0
5472 H 22.301335 22.046837 21.721319 H 0.0 **** 0.0
5473 O 22.559574 34.192327 21.598097 O 0.0 **** 0.0
5474 H 23.314306 34.839292 21.489112 H 0.0 **** 0.0
5475 H 22.912225 33.257754 21.55041 H 0.0 **** 0.0
5476 O 41.446419 5.091151 43.89632 O 0.0 **** 0.0
5477 H 40.644656 5.163277 43.302994 H 0.0 **** 0.0
5478 H 41.387803 4.250694 44.435077 H 0.0 **** 0.0
5479 O 12.116219 44.42283 44.125605 O 0.0 **** 0.0
5480 H 13.004191 44.858155 44.274138 H 0.0 **** 0.0
5481 H 12.147902 43.479685 44.456569 H 0.0 **** 0.0
5482 O 39.158743 20.621137 22.523187 O 0.0 **** 0.0
5483 H 39.119231 19.636059 22.355487 H 0.0 **** 0.0
5484 H 39.934881 20.826852 23.119303 H 0.0 **** 0.0
5485 O 11.839621 9.239751 18.596253 O 0.0 **** 0.0
5486 H 11.611016 8.905939 17.681719 H 0.0 **** 0.0
5487 H 12.649792 9.823753 18.544998 H 0.0 **** 0.0
5488 O 3.807572 38.365228 37.676629 O 0.0 **** 0.0
5489 H 3.146071 37.664177 37.410157 H 0.0 **** 0.0
5490 H 3.542671 38.755393 38.55848 H 0.0 **** 0.0
5491 O 19.553682 33.227177 27.621119 O 0.0 **** 0.0
5492 H 19.838314 34.092494 27.208476 H 0.0 **** 0.0
5493 H 18.913163 33.408575 28.367372 H 0.0 **** 0.0
5494 O 2.655971 13.812247 45.963495 O 0.0 **** 0.0
5495 H 2.750669 14.748096 45.623961 H 0.0 **** 0.0
5496 H 3.544074 13.482447 46.283757 H 0.0 **** 0.0
5497 O 30.480003 45.314804 24.33435 O 0.0 **** 0.0
5498 H 29.948624 46.106028 24.031589 H 0.0 **** 0.0
5499 H 30.433755 44.596767 23.639839 H 0.0 **** 0.0
5500 O 4.88776 22.076209 2.495982 O 0.0 **** 0.0
5501 H 4.501866 22.892902 2.925122 H 0.0 **** 0.0
5502 H 4.190819 21.360192 2.455294 H 0.0 **** 0.0
5503 O 44.592026 4.363745 16.12097 O 0.0 **** 0.0
5504 H 45.515717 3.987313 16.192776 H 0.0 **** 0.0
5505 H 44.532924 5.206243 16.656476 H 0.0 **** 0.0
5506 O 33.738783 23.471485 30.570762 O 0.0 **** 0.0
5507 H 34.448639 23.55811 31.269806 H 0.0 **** 0.0
5508 H 33.901504 22.645427 30.031121 H 0.0 **** 0.0
5509 O 7.52908 2.234798 11.273414 O 0.0 **** 0.0
5510 H 8.190949 1.553285 11.585715 H 0.0 **** 0.0
5511 H 6.746684 1.77265 10.855874 H 0.0 **** 0.0
5512 O 46.998712 30.906751 21.493116 O 0.0 **** 0.0
5513 H 46.458704 30.065149 21.505825 H 0.0 **** 0.0
5514 H 47.972011 30.677947 21.473084 H 0.0 **** 0.0
5515 O 12.817883 37.23914 11.309764 O 0.0 **** 0.0
5516 H 12.419545 37.522336 12.182226 H 0.0 **** 0.0
5517 H 12.61302 37.925143 10.611557 H 0.0 **** 0.0
5518 O 16.703982 36.895354 31.082479 O 0.0 **** 0.0
5519 H 17.632315 36.638104 31.350963 H 0.0 **** 0.0
5520 H 16.698855 37.168362 30.120448 H 0.0 **** 0.0
5521 O 26.503497 29.479137 13.617889 O 0.0 **** 0.0
5522 H 27.176781 29.526095 12.879955 H 0.0 **** 0.0
5523 H 26.73121 28.721054 14.229053 H 0.0 **** 0.0
5524 O 15.879439 7.309761 0.874658 O 0.0 **** 0.0
5525 H 15.415548 7.172131 -0.000514 H 0.0 **** 0.0
5526 H 16.49175 8.09752 0.807033 H 0.0 **** 0.0
5527 O 40.567949 28.207244 6.333834 O 0.0 **** 0.0
5528 H 40.944746 27.49274 5.744283 H 0.0 **** 0.0
5529 H 39.626588 27.975119 6.578823 H 0.0 **** 0.0
5530 O 13.188142 14.624476 25.419095 O 0.0 **** 0.0
5531 H 13.871977 14.665723 24.690582 H 0.0 **** 0.0
5532 H 13.580414 14.985375 26.265226 H 0.0 **** 0.0
5533 O 44.119843 42.733119 38.736359 O 0.0 **** 0.0
5534 H 43.458494 42.152445 39.211224 H 0.0 **** 0.0
5535 H 43.99501 43.683195 39.02243 H 0.0 **** 0.0
5536 O 26.437957 19.273844 41.90183 O 0.0 **** 0.0
5537 H 26.063204 20.185896 41.735139 H 0.0 **** 0.0
5538 H 25.689114 18.617204 41.991953 H 0.0 **** 0.0
5539 O 5.289487 22.168159 40.990085 O 0.0 **** 0.0
5540 H 5.172781 21.304049 41.479735 H 0.0 **** 0.0
5541 H 4.511994 22.311901 40.377789 H 0.0 **** 0.0
5542 O 44.616234 1.363611 12.564804 O 0.0 **** 0.0
5543 H 43.948425 2.038539 12.250852 H 0.0 **** 0.0
5544 H 44.147366 0.644461 13.077687 H 0.0 **** 0.0
5545 O 32.354994 42.490141 5.933768 O 0.0 **** 0.0
5546 H 32.285606 41.508738 5.754617 H 0.0 **** 0.0
5547 H 31.629732 42.765847 6.564675 H 0.0 **** 0.0
5548 O 35.092023 29.40943 15.813206 O 0.0 **** 0.0
5549 H 34.525315 28.689292 15.412823 H 0.0 **** 0.0
5550 H 34.504359 30.129589 16.182104 H 0.0 **** 0.0
5551 O 13.925427 15.443768 12.120113 O 0.0 **** 0.0
5552 H 13.068324 14.928722 12.132946 H 0.0 **** 0.0
5553 H 13.725547 16.422146 12.066384 H 0.0 **** 0.0
5554 O 42.932416 43.174069 12.071656 O 0.0 **** 0.0
5555 H 43.659268 43.856433 12.149937 H 0.0 **** 0.0
5556 H 42.055624 43.635253 11.935244 H 0.0 **** 0.0
5557 O 8.399387 33.026998 40.961426 O 0.0 **** 0.0
5558 H 8.014494 33.943262 41.072691 H 0.0 **** 0.0
5559 H 9.363468 33.099289 40.70572 H 0.0 **** 0.0
5560 O 1.034427 32.662003 4.552248 O 0.0 **** 0.0
5561 H 1.171924 31.820757 4.029312 H 0.0 **** 0.0
5562 H 1.91741 32.999881 4.878196 H 0.0 **** 0.0
5563 O 9.791732 46.150892 44.412305 O 0.0 **** 0.0
5564 H 10.129881 45.251109 44.688182 H 0.0 **** 0.0
5565 H 10.258341 46.440399 43.576527 H 0.0 **** 0.0
5566 O 7.211826 44.860576 15.369294 O 0.0 **** 0.0
5567 H 6.781094 45.701694 15.042104 H 0.0 **** 0.0
5568 H 7.102593 44.794218 16.361125 H 0.0 **** 0.0
5569 O 13.379468 4.138296 38.203594 O 0.0 **** 0.0
5570 H 14.035801 3.619547 38.751488 H 0.0 **** 0.0
5571 H 13.09431 3.589771 37.417548 H 0.0 **** 0.0
5572 O 0.966857 19.262801 10.296562 O 0.0 **** 0.0
5573 H -0.023992 19.397141 10.31186 H 0.0 **** 0.0
5574 H 1.169599 18.291261 10.1738 H 0.0 **** 0.0
5575 O 26.685775 47.560777 39.063146 O 0.0 **** 0.0
5576 H 25.840226 47.996661 38.754739 H 0.0 **** 0.0
5577 H 26.865275 47.816514 40.013115 H 0.0 **** 0.0
5578 O 43.561633 42.234184 10.185272 O 0.0 **** 0.0
5579 H 42.845461 41.540076 10.111963 H 0.0 **** 0.0
5580 H 43.535704 42.826176 9.379706 H 0.0 **** 0.0
5581 O 28.592423 6.073856 43.959111 O 0.0 **** 0.0
5582 H 29.412015 6.191851 44.519833 H 0.0 **** 0.0
5583 H 28.654331 5.212054 43.455597 H 0.0 **** 0.0
5584 O 42.935161 41.191048 21.800919 O 0.0 **** 0.0
5585 H 41.9413 41.09073 21.753577 H 0.0 **** 0.0
5586 H 43.278536 41.525614 20.923296 H 0.0 **** 0.0
5587 O 41.874086 17.271404 16.253589 O 0.0 **** 0.0
5588 H 41.054368 16.708024 16.15001 H 0.0 **** 0.0
5589 H 42.665448 16.681802 16.415386 H 0.0 **** 0.0
5590 O 10.414264 28.508036 12.252145 O 0.0 **** 0.0
5591 H 9.528733 28.27789 11.848499 H 0.0 **** 0.0
5592 H 10.508019 29.502245 12.305276 H 0.0 **** 0.0
5593 O 27.052104 6.468466 27.029617 O 0.0 **** 0.0
5594 H 26.053302 6.44012 26.988941 H 0.0 **** 0.0
5595 H 27.412668 5.535753 27.019484 H 0.0 **** 0.0
5596 O 33.935443 24.107519 22.193219 O 0.0 **** 0.0
5597 H 32.956904 24.257275 22.051451 H 0.0 **** 0.0
5598 H 34.117568 23.125855 22.250044 H 0.0 **** 0.0
5599 O 25.021685 20.326285 3.742238 O 0.0 **** 0.0
5600 H 25.173837 19.627814 4.44156 H 0.0 **** 0.0
5601 H 24.591789 19.90842 2.941837 H 0.0 **** 0.0
5602 O 27.500905 24.159566 31.673881 O 0.0 **** 0.0
5603 H 27.84855 24.867567 32.28865 H 0.0 **** 0.0
5604 H 27.586609 23.265291 32.113186 H 0.0 **** 0.0
5605 O 16.760541 46.291673 38.410816 O 0.0 **** 0.0
5606 H 15.940945 46.86466 38.407562 H 0.0 **** 0.0
5607 H 17.573777 46.873368 38.429291 H 0.0 **** 0.0
5608 O 26.683431 35.8508 2.980152 O 0.0 **** 0.0
5609 H 26.573678 36.681637 2.434508 H 0.0 **** 0.0
5610 H 26.866907 36.098653 3.931451 H 0.0 **** 0.0
5611 O 23.494749 5.017557 22.196497 O 0.0 **** 0.0
5612 H 22.898244 4.490133 21.591461 H 0.0 **** 0.0
5613 H 24.441464 4.936409 21.884714 H 0.0 **** 0.0
5614 O 37.439079 19.469937 17.738247 O 0.0 **** 0.0
5615 H 37.532532 18.65875 17.160922 H 0.0 **** 0.0
5616 H 36.827358 19.26626 18.502693 H 0.0 **** 0.0
5617 O 6.080537 12.4405 29.394375 O 0.0 **** 0.0
5618 H 5.71649 11.528153 29.581873 H 0.0 **** 0.0
5619 H 5.355002 13.018539 29.020834 H 0.0 **** 0.0
5620 O 41.569229 42.201798 44.670572 O 0.0 **** 0.0
5621 H 41.481809 42.120157 45.663424 H 0.0 **** 0.0
5622 H 40.792312 41.752413 44.229532 H 0.0 **** 0.0
5623 O 8.609489 31.151086 14.595087 O 0.0 **** 0.0
5624 H 8.615275 31.638101 15.468498 H 0.0 **** 0.0
5625 H 9.539177 30.859424 14.369973 H 0.0 **** 0.0
5626 O 8.836474 33.350118 38.172349 O 0.0 **** 0.0
5627 H 9.214456 32.93384 37.345363 H 0.0 **** 0.0
5628 H 8.950283 34.342651 38.127766 H 0.0 **** 0.0
5629 O 25.586361 3.656724 31.758567 O 0.0 **** 0.0
5630 H 25.217172 2.97859 31.123038 H 0.0 **** 0.0
5631 H 26.515658 3.396515 32.020792 H 0.0 **** 0.0
5632 O 40.713705 8.240345 9.207506 O 0.0 **** 0.0
5633 H 40.502732 8.392815 8.241946 H 0.0 **** 0.0
5634 H 39.966388 8.591818 9.771463 H 0.0 **** 0.0
5635 O 1.21426 41.40034 0.687524 O 0.0 **** 0.0
5636 H 1.888447 42.133995 0.602172 H 0.0 **** 0.0
5637 H 1.682127 40.539345 0.88715 H 0.0 **** 0.0
5638 O 15.902309 11.257003 33.241243 O 0.0 **** 0.0
5639 H 15.716968 11.857617 32.463443 H 0.0 **** 0.0
5640 H 16.14501 10.3458 32.908275 H 0.0 **** 0.0
5641 O 20.280839 40.484063 24.891344 O 0.0 **** 0.0
5642 H 19.301006 40.625793 24.750265 H 0.0 **** 0.0
5643 H 20.79513 41.149777 24.350611 H 0.0 **** 0.0
5644 O 43.54796 14.078641 26.941709 O 0.0 **** 0.0
5645 H 42.59142 14.109016 27.231833 H 0.0 **** 0.0
5646 H 44.038913 13.39605 27.483094 H 0.0 **** 0.0
5647 O 8.637516 16.731584 19.010632 O 0.0 **** 0.0
5648 H 8.367622 16.175646 18.224405 H 0.0 **** 0.0
5649 H 9.59669 16.553965 19.230863 H 0.0 **** 0.0
5650 O 13.569367 41.282173 22.888786 O 0.0 **** 0.0
5651 H 13.235498 42.048774 22.340227 H 0.0 **** 0.0
5652 H 14.513721 41.075503 22.632766 H 0.0 **** 0.0
5653 O 15.566089 33.196266 10.145941 O 0.0 **** 0.0
5654 H 14.620415 33.466314 10.327151 H 0.0 **** 0.0
5655 H 16.179534 33.704882 10.750142 H 0.0 **** 0.0
5656 O 46.763398 0.050063 40.46605 O 0.0 **** 0.0
5657 H 46.47668 1.003674 40.373959 H 0.0 **** 0.0
5658 H 47.761648 -0.002091 40.437078 H 0.0 **** 0.0
5659 O 8.881712 9.338404 10.083267 O 0.0 **** 0.0
5660 H 8.913317 8.345437 10.197644 H 0.0 **** 0.0
5661 H 7.962721 9.669476 10.297532 H 0.0 **** 0.0
5662 O 20.323183 20.552217 46.2791 O 0.0 **** 0.0
5663 H 19.391948 20.223712 46.121147 H 0.0 **** 0.0
5664 H 20.698196 20.11152 47.094707 H 0.0 **** 0.0
5665 O 11.857607 21.869122 27.752481 O 0.0 **** 0.0
5666 H 12.644915 22.157255 27.207331 H 0.0 **** 0.0
5667 H 11.580877 20.948323 27.477506 H 0.0 **** 0.0
5668 O 37.399601 44.179571 41.617773 O 0.0 **** 0.0
5669 H 38.300459 44.280128 41.195391 H 0.0 **** 0.0
5670 H 36.745913 44.778589 41.155245 H 0.0 **** 0.0
5671 O 20.138596 29.561089 16.954249 O 0.0 **** 0.0
5672 H 20.551467 28.914325 16.312925 H 0.0 **** 0.0
5673 H 20.824112 30.230861 17.239795 H 0.0 **** 0.0
5674 O 9.324633 4.017226 29.415642 O 0.0 **** 0.0
5675 H 9.832589 4.430026 30.171711 H 0.0 **** 0.0
5676 H 9.248096 3.031309 29.564547 H 0.0 **** 0.0
5677 O 9.968854 39.59222 31.364241 O 0.0 **** 0.0
5678 H 9.593778 39.756937 32.276518 H 0.0 **** 0.0
5679 H 10.95743 39.742504 31.378223 H 0.0 **** 0.0
5680 O 44.491987 8.728419 2.309021 O 0.0 **** 0.0
5681 H 43.68879 9.069396 2.797561 H 0.0 **** 0.0
5682 H 44.311034 7.803365 1.974962 H 0.0 **** 0.0
5683 O 33.627695 30.062372 1.452393 O 0.0 **** 0.0
5684 H 34.451631 29.621408 1.09638 H 0.0 **** 0.0
5685 H 32.852564 29.435829 1.370671 H 0.0 **** 0.0
5686 O 1.005562 39.013562 19.066985 O 0.0 **** 0.0
5687 H 0.911483 38.017966 19.068171 H 0.0 **** 0.0
5688 H 0.098249 39.43406 19.072305 H 0.0 **** 0.0
5689 O 41.732509 46.108217 23.449874 O 0.0 **** 0.0
5690 H 42.623177 46.551406 23.348097 H 0.0 **** 0.0
5691 H 41.139356 46.678723 24.01799 H 0.0 **** 0.0
5692 O 26.638533 15.111805 7.82712 O 0.0 **** 0.0
5693 H 26.514077 16.040322 7.477221 H 0.0 **** 0.0
5694 H 27.583333 14.994884 8.1333 H 0.0 **** 0.0
5695 O 15.035869 32.966843 32.130886 O 0.0 **** 0.0
5696 H 15.787076 32.559718 32.650502 H 0.0 **** 0.0
5697 H 14.45599 33.500855 32.74622 H 0.0 **** 0.0
5698 O 19.944574 27.276294 35.686574 O 0.0 **** 0.0
5699 H 19.044374 26.979862 35.367462 H 0.0 **** 0.0
5700 H 20.437317 27.713947 34.934425 H 0.0 **** 0.0
5701 O 25.390796 14.800542 31.980392 O 0.0 **** 0.0
5702 H 25.383271 15.800542 31.977743 H 0.0 **** 0.0
5703 H 25.373739 14.464638 31.038617 H 0.0 **** 0.0
5704 O 10.967808 5.888436 22.556446 O 0.0 **** 0.0
5705 H 11.212599 6.012983 23.518022 H 0.0 **** 0.0
5706 H 11.789364 5.672729 22.02864 H 0.0 **** 0.0
5707 O 16.021061 0.993131 47.112075 O 0.0 **** 0.0
5708 H 16.071307 1.017711 46.113609 H 0.0 **** 0.0
5709 H 15.080797 0.801889 47.393843 H 0.0 **** 0.0
5710 O 0.218135 45.563797 32.380326 O 0.0 **** 0.0
5711 H 0.602964 44.777961 32.864506 H 0.0 **** 0.0
5712 H -1.3e-05 46.285717 33.037065 H 0.0 **** 0.0
5713 O 36.910346 38.320085 16.367712 O 0.0 **** 0.0
5714 H 36.80753 37.941386 17.287537 H 0.0 **** 0.0
5715 H 36.094791 38.848551 16.131794 H 0.0 **** 0.0
5716 O 38.72564 -0.031367 40.81992 O 0.0 **** 0.0
5717 H 39.268912 0.15219 41.639202 H 0.0 **** 0.0
5718 H 38.258455 0.805785 40.535356 H 0.0 **** 0.0
5719 O 15.956231 5.230137 17.599412 O 0.0 **** 0.0
5720 H 15.62716 4.360919 17.968515 H 0.0 **** 0.0
5721 H 15.310265 5.957092 17.832496 H 0.0 **** 0.0
5722 O 18.69545 40.139287 15.724939 O 0.0 **** 0.0
5723 H 19.041697 39.292494 16.128818 H 0.0 **** 0.0
5724 H 18.300573 39.943286 14.827321 H 0.0 **** 0.0
5725 O 33.778143 16.496047 43.286631 O 0.0 **** 0.0
5726 H 32.915023 16.028566 43.477807 H 0.0 **** 0.0
5727 H 33.724235 17.440786 43.610088 H 0.0 **** 0.0
5728 O 29.705678 6.585738 4.751239 O 0.0 **** 0.0
5729 H 30.105424 7.040174 5.547325 H 0.0 **** 0.0
5730 H 30.426412 6.375747 4.090551 H 0.0 **** 0.0
5731 O 21.482923 24.337956 41.60702 O 0.0 **** 0.0
5732 H 21.401524 23.349071 41.731698 H 0.0 **** 0.0
5733 H 20.653803 24.78549 41.942188 H 0.0 **** 0.0
5734 O 35.427411 8.857951 33.75912 O 0.0 **** 0.0
5735 H 35.175391 8.47274 32.871335 H 0.0 **** 0.0
5736 H 34.599527 9.050528 34.285984 H 0.0 **** 0.0
5737 O 36.0048 35.697338 16.849257 O 0.0 **** 0.0
5738 H 35.104054 35.279095 16.966698 H 0.0 **** 0.0
5739 H 36.704487 34.98301 16.833899 H 0.0 **** 0.0
5740 O 19.956468 36.642576 32.252824 O 0.0 **** 0.0
5741 H 20.572827 37.290052 32.701084 H 0.0 **** 0.0
5742 H 19.252492 36.349927 32.9 H 0.0 **** 0.0
5743 O 9.117767 35.254519 6.166572 O 0.0 **** 0.0
5744 H 8.782454 35.908753 6.844514 H 0.0 **** 0.0
5745 H 10.039317 34.957802 6.417109 H 0.0 **** 0.0
5746 O 22.575767 25.141996 39.077681 O 0.0 **** 0.0
5747 H 21.74958 25.462284 39.541247 H 0.0 **** 0.0
5748 H 23.304685 25.817139 39.191366 H 0.0 **** 0.0
5749 O 19.703701 37.687039 41.056634 O 0.0 **** 0.0
5750 H 20.068004 38.566363 40.749822 H 0.0 **** 0.0
5751 H 20.027295 36.961866 40.44879 H 0.0 **** 0.0
5752 O 2.92433 12.5786 30.676529 O 0.0 **** 0.0
5753 H 3.019894 13.57344 30.641537 H 0.0 **** 0.0
5754 H 3.829133 12.15509 30.631447 H 0.0 **** 0.0
5755 O 23.073417 27.560614 19.530262 O 0.0 **** 0.0
5756 H 22.976631 28.267257 18.829297 H 0.0 **** 0.0
5757 H 22.2974 26.93193 19.479096 H 0.0 **** 0.0
5758 O 25.011044 1.099671 28.964225 O 0.0 **** 0.0
5759 H 25.121923 2.082053 28.813575 H 0.0 **** 0.0
5760 H 25.905585 0.654018 28.928813 H 0.0 **** 0.0
5761 O 23.258934 12.307209 45.316214 O 0.0 **** 0.0
5762 H 23.228711 11.354843 45.619776 H 0.0 **** 0.0
5763 H 23.786243 12.370334 44.468852 H 0.0 **** 0.0
5764 O 31.050608 11.422144 29.018433 O 0.0 **** 0.0
5765 H 31.282243 10.458684 29.153169 H 0.0 **** 0.0
5766 H 30.220992 11.640481 29.532368 H 0.0 **** 0.0
5767 O 12.78186 38.075731 16.562687 O 0.0 **** 0.0
5768 H 13.54469 38.683727 16.782905 H 0.0 **** 0.0
5769 H 11.943923 38.427832 16.979761 H 0.0 **** 0.0
5770 O 42.351242 27.937262 35.920415 O 0.0 **** 0.0
5771 H 42.39099 28.029848 34.925472 H 0.0 **** 0.0
5772 H 41.719049 28.61647 36.293339 H 0.0 **** 0.0
5773 O 11.870428 10.801494 30.950224 O 0.0 **** 0.0
5774 H 12.542275 11.445116 30.583569 H 0.0 **** 0.0
5775 H 11.340259 11.247806 31.671189 H 0.0 **** 0.0
5776 O 37.720941 38.778488 29.542671 O 0.0 **** 0.0
5777 H 37.680717 39.77771 29.544158 H 0.0 **** 0.0
5778 H 38.67642 38.483423 29.534924 H 0.0 **** 0.0
5779 O 44.789078 6.376912 43.231357 O 0.0 **** 0.0
5780 H 43.796104 6.495491 43.229292 H 0.0 **** 0.0
5781 H 45.231806 7.273592 43.226828 H 0.0 **** 0.0
5782 O 22.050054 28.9794 41.203852 O 0.0 **** 0.0
5783 H 22.511968 28.107414 41.041557 H 0.0 **** 0.0
5784 H 21.375118 29.138202 40.483223 H 0.0 **** 0.0
5785 O 18.355113 33.081693 9.82613 O 0.0 **** 0.0
5786 H 18.160778 34.062253 9.854418 H 0.0 **** 0.0
5787 H 17.56554 32.596149 9.450785 H 0.0 **** 0.0
5788 O 15.663075 13.813387 39.69804 O 0.0 **** 0.0
5789 H 15.914362 14.476751 40.402927 H 0.0 **** 0.0
5790 H 16.128268 12.946124 39.875562 H 0.0 **** 0.0
5791 O 28.710129 2.457439 4.755865 O 0.0 **** 0.0
5792 H 29.223469 2.150476 5.557313 H 0.0 **** 0.0
5793 H 29.348185 2.725252 4.033906 H 0.0 **** 0.0
5794 O 34.903124 36.677317 46.451317 O 0.0 **** 0.0
5795 H 35.656039 36.019172 46.44611 H 0.0 **** 0.0
5796 H 35.272668 37.606532 46.443577 H 0.0 **** 0.0
5797 O 16.921323 21.311717 35.248783 O 0.0 **** 0.0
5798 H 15.991434 21.671772 35.324484 H 0.0 **** 0.0
5799 H 16.884349 20.331442 35.05447 H 0.0 **** 0.0
5800 O 0.097727 25.835651 33.294435 O 0.0 **** 0.0
5801 H 0.469436 26.712465 32.989323 H 0.0 **** 0.0
5802 H 0.268301 25.140287 32.596269 H 0.0 **** 0.0
5803 O 31.232491 47.372303 31.701184 O 0.0 **** 0.0
5804 H 30.307914 47.343287 32.081156 H 0.0 **** 0.0
5805 H 31.701767 46.511943 31.900244 H 0.0 **** 0.0
5806 O 46.526178 47.476417 14.801523 O 0.0 **** 0.0
5807 H 45.674173 47.99982 14.815664 H 0.0 **** 0.0
5808 H 46.316455 46.499001 14.774385 H 0.0 **** 0.0
5809 O 22.674681 23.760173 47.13027 O 0.0 **** 0.0
5810 H 22.453782 22.795882 47.27659 H 0.0 **** 0.0
5811 H 21.923939 24.203446 46.640414 H 0.0 **** 0.0
5812 O 42.970254 37.928176 1.498489 O 0.0 **** 0.0
5813 H 42.396606 37.115403 1.396558 H 0.0 **** 0.0
5814 H 42.490919 38.723176 1.126636 H 0.0 **** 0.0
5815 O 19.075581 43.87717 37.810961 O 0.0 **** 0.0
5816 H 18.151666 43.533009 37.978285 H 0.0 **** 0.0
5817 H 19.311995 44.551181 38.510876 H 0.0 **** 0.0
5818 O 4.206334 27.822937 6.133646 O 0.0 **** 0.0
5819 H 5.012095 28.403966 6.018678 H 0.0 **** 0.0
5820 H 3.381435 28.356075 5.945581 H 0.0 **** 0.0
5821 O 35.460439 17.540917 4.222168 O 0.0 **** 0.0
5822 H 36.331772 17.81857 4.626828 H 0.0 **** 0.0
5823 H 35.253197 18.129673 3.440835 H 0.0 **** 0.0
5824 O 40.925428 0.62199 32.624381 O 0.0 **** 0.0
5825 H 41.705815 -0.000118 32.560814 H 0.0 **** 0.0
5826 H 40.081366 0.091124 32.700564 H 0.0 **** 0.0
5827 O 40.861876 20.179189 12.051423 O 0.0 **** 0.0
5828 H 40.529214 20.990528 11.570666 H 0.0 **** 0.0
5829 H 40.677983 19.365883 11.499354 H 0.0 **** 0.0
5830 O 33.874098 33.190434 27.299026 O 0.0 **** 0.0
5831 H 33.223588 32.743587 27.913215 H 0.0 **** 0.0
5832 H 34.416858 33.853971 27.813995 H 0.0 **** 0.0
5833 O 1.682131 14.382227 37.199948 O 0.0 **** 0.0
5834 H 1.075945 13.586917 37.19071 H 0.0 **** 0.0
5835 H 2.634038 14.075737 37.20037 H 0.0 **** 0.0
5836 O 33.825791 18.960465 13.705132 O 0.0 **** 0.0
5837 H 34.184007 18.027012 13.684861 H 0.0 **** 0.0
5838 H 34.585842 19.609782 13.677348 H 0.0 **** 0.0
5839 O 13.17389 15.055229 34.722718 O 0.0 **** 0.0
5840 H 14.135768 14.781844 34.733422 H 0.0 **** 0.0
5841 H 12.689985 14.601041 35.47079 H 0.0 **** 0.0
5842 O 46.663785 32.474727 37.427723 O 0.0 **** 0.0
5843 H 46.840079 31.963092 36.586763 H 0.0 **** 0.0
5844 H 45.748669 32.876038 37.388039 H 0.0 **** 0.0
5845 O 15.89974 24.136208 39.07154 O 0.0 **** 0.0
5846 H 15.232166 24.867018 39.214102 H 0.0 **** 0.0
5847 H 16.799767 24.441645 39.382543 H 0.0 **** 0.0
5848 O 16.0759 15.499518 11.65928 O 0.0 **** 0.0
5849 H 16.090861 14.522436 11.871768 H 0.0 **** 0.0
5850 H 16.862328 15.727831 11.085288 H 0.0 **** 0.0
5851 O 31.000779 35.639857 46.037315 O 0.0 **** 0.0
5852 H 31.722261 36.330424 46.088744 H 0.0 **** 0.0
5853 H 30.220044 36.010399 45.534109 H 0.0 **** 0.0
5854 O 6.521159 23.367668 27.27604 O 0.0 **** 0.0
5855 H 5.633986 23.410835 26.816556 H 0.0 **** 0.0
5856 H 6.619858 24.154922 27.884771 H 0.0 **** 0.0
5857 O 28.331861 17.401475 20.161516 O 0.0 **** 0.0
5858 H 28.843651 17.930788 20.838245 H 0.0 **** 0.0
5859 H 28.486691 17.785775 19.251348 H 0.0 **** 0.0
5860 O 36.308986 22.673743 19.280207 O 0.0 **** 0.0
5861 H 36.148878 21.750317 19.629082 H 0.0 **** 0.0
5862 H 37.288536 22.808195 19.130318 H 0.0 **** 0.0
5863 O 13.662298 43.667949 32.061071 O 0.0 **** 0.0
5864 H 14.648408 43.654364 32.226798 H 0.0 **** 0.0
5865 H 13.178216 43.719138 32.934631 H 0.0 **** 0.0
5866 O 17.004164 22.411702 2.964911 O 0.0 **** 0.0
5867 H 16.254058 22.724599 2.382245 H 0.0 **** 0.0
5868 H 17.536411 21.718198 2.479289 H 0.0 **** 0.0
5869 O 10.636744 28.898609 20.958357 O 0.0 **** 0.0
5870 H 10.66037 28.14981 21.620779 H 0.0 **** 0.0
5871 H 11.17854 29.665396 21.30268 H 0.0 **** 0.0
5872 O 10.488882 8.488377 32.682536 O 0.0 **** 0.0
5873 H 11.279098 7.875806 32.702022 H 0.0 **** 0.0
5874 H 10.797174 9.433573 32.790346 H 0.0 **** 0.0
5875 O 14.846045 29.195427 30.648363 O 0.0 **** 0.0
5876 H 14.698388 30.183492 30.603785 H 0.0 **** 0.0
5877 H 14.540596 28.773948 29.794478 H 0.0 **** 0.0
5878 O 13.801983 5.80649 36.145502 O 0.0 **** 0.0
5879 H 13.878285 6.514654 35.443543 H 0.0 **** 0.0
5880 H 12.997971 5.240784 35.962189 H 0.0 **** 0.0
5881 O 46.247544 29.798223 43.728282 O 0.0 **** 0.0
5882 H 46.243883 29.212706 44.538973 H 0.0 **** 0.0
5883 H 45.607528 29.434366 43.051488 H 0.0 **** 0.0
5884 O 18.072404 9.451101 15.237915 O 0.0 **** 0.0
5885 H 18.80494 10.125476 15.144791 H 0.0 **** 0.0
5886 H 18.462214 8.530433 15.215972 H 0.0 **** 0.0
5887 O 46.439821 15.707662 21.95395 O 0.0 **** 0.0
5888 H 47.438529 15.758378 21.945439 H 0.0 **** 0.0
5889 H 46.134106 15.042084 21.273062 H 0.0 **** 0.0
5890 O 29.343975 25.646864 42.293151 O 0.0 **** 0.0
5891 H 30.155099 26.078963 42.687398 H 0.0 **** 0.0
5892 H 29.445228 24.652624 42.329168 H 0.0 **** 0.0
5893 O 18.132882 10.767178 22.03217 O 0.0 **** 0.0
5894 H 17.611592 10.228199 21.370489 H 0.0 **** 0.0
5895 H 17.566934 10.944386 22.837381 H 0.0 **** 0.0
5896 O 22.69387 33.08758 43.068933 O 0.0 **** 0.0
5897 H 22.011616 32.762558 43.723877 H 0.0 **** 0.0
5898 H 23.184594 32.306135 42.68345 H 0.0 **** 0.0
5899 O 22.156163 38.568729 47.780531 O 0.0 **** 0.0
5900 H 22.010808 37.726316 47.261614 H 0.0 **** 0.0
5901 H 21.310023 39.101557 47.794813 H 0.0 **** 0.0
5902 O 15.702756 13.45306 37.529237 O 0.0 **** 0.0
5903 H 14.794434 13.8565 37.418557 H 0.0 **** 0.0
5904 H 15.859532 12.7813 36.805204 H 0.0 **** 0.0
5905 O 29.993751 27.1605 39.457924 O 0.0 **** 0.0
5906 H 29.421615 27.840333 39.916781 H 0.0 **** 0.0
5907 H 30.927253 27.2168 39.812138 H 0.0 **** 0.0
5908 O 9.20856 21.032905 45.705163 O 0.0 **** 0.0
5909 H 9.152477 21.276705 46.673398 H 0.0 **** 0.0
5910 H 8.569712 20.288322 45.511428 H 0.0 **** 0.0
5911 O 45.72467 39.378061 6.288775 O 0.0 **** 0.0
5912 H 45.40759 38.433464 6.373977 H 0.0 **** 0.0
5913 H 46.701228 39.422101 6.499624 H 0.0 **** 0.0
5914 O 27.461747 11.832029 34.51816 O 0.0 **** 0.0
5915 H 26.60114 11.322817 34.529249 H 0.0 **** 0.0
5916 H 27.88837 11.785178 35.421411 H 0.0 **** 0.0
5917 O 34.708793 3.913744 20.603745 O 0.0 **** 0.0
5918 H 35.01584 3.796596 21.548235 H 0.0 **** 0.0
5919 H 33.722658 4.079462 20.592015 H 0.0 **** 0.0
5920 O 0.755128 24.076297 4.340686 O 0.0 **** 0.0
5921 H 0.255667 23.50446 4.991535 H 0.0 **** 0.0
5922 H 0.111326 24.664987 3.851784 H 0.0 **** 0.0
5923 O 35.115307 19.161362 15.971794 O 0.0 **** 0.0
5924 H 35.299233 18.178393 15.974302 H 0.0 **** 0.0
5925 H 35.98079 19.662352 15.968557 H 0.0 **** 0.0
5926 O 33.109097 16.503351 28.056847 O 0.0 **** 0.0
5927 H 32.981616 15.602163 28.471179 H 0.0 **** 0.0
5928 H 34.050551 16.590177 27.730981 H 0.0 **** 0.0
5929 O 15.981618 41.183347 32.597752 O 0.0 **** 0.0
5930 H 16.436057 40.455753 33.111713 H 0.0 **** 0.0
5931 H 15.107726 41.402246 33.03187 H 0.0 **** 0.0
5932 O 15.317465 23.393969 43.410372 O 0.0 **** 0.0
5933 H 15.721725 22.497479 43.22887 H 0.0 **** 0.0
5934 H 14.580532 23.297945 44.079531 H 0.0 **** 0.0
5935 O 21.013456 6.711795 0.433892 O 0.0 **** 0.0
5936 H 20.730261 5.857577 -0.002199 H 0.0 **** 0.0
5937 H 20.536775 7.479059 0.004771 H 0.0 **** 0.0
5938 O 13.543357 41.029654 19.446442 O 0.0 **** 0.0
5939 H 13.261588 40.186941 18.987636 H 0.0 **** 0.0
5940 H 13.190504 41.033685 20.382146 H 0.0 **** 0.0
5941 O 41.992042 26.407789 32.653862 O 0.0 **** 0.0
5942 H 41.179837 26.987175 32.58532 H 0.0 **** 0.0
5943 H 41.893052 25.785671 33.430542 H 0.0 **** 0.0
5944 O 0.598647 1.15852 5.733653 O 0.0 **** 0.0
5945 H 0.046272 1.945078 5.457482 H 0.0 **** 0.0
5946 H 1.5687 1.389352 5.657654 H 0.0 **** 0.0
5947 O 36.98451 29.524331 9.599788 O 0.0 **** 0.0
5948 H 36.567114 28.616253 9.634956 H 0.0 **** 0.0
5949 H 37.880378 29.462522 9.159716 H 0.0 **** 0.0
5950 O 27.502184 9.85846 2.411965 O 0.0 **** 0.0
5951 H 27.183071 9.385276 3.233139 H 0.0 **** 0.0
5952 H 27.219901 9.345856 1.60103 H 0.0 **** 0.0
5953 O 15.887326 15.10725 3.081083 O 0.0 **** 0.0
5954 H 16.684913 14.512984 2.977324 H 0.0 **** 0.0
5955 H 15.056657 14.588571 2.878537 H 0.0 **** 0.0
5956 O 40.76828 33.498137 3.637193 O 0.0 **** 0.0
5957 H 41.39554 34.268686 3.750601 H 0.0 **** 0.0
5958 H 39.914265 33.689613 4.12099 H 0.0 **** 0.0
5959 O 21.575295 37.712404 8.719345 O 0.0 **** 0.0
5960 H 22.3057 37.093426 9.008203 H 0.0 **** 0.0
5961 H 20.725554 37.465557 9.185252 H 0.0 **** 0.0
5962 O 42.489463 17.681224 43.224943 O 0.0 **** 0.0
5963 H 43.00288 18.153255 43.941638 H 0.0 **** 0.0
5964 H 41.60679 17.383251 43.588487 H 0.0 **** 0.0
5965 O 35.23954 32.297333 17.52276 O 0.0 **** 0.0
5966 H 34.484333 32.218446 16.87199 H 0.0 **** 0.0
5967 H 35.189833 33.182589 17.985268 H 0.0 **** 0.0
5968 O 47.26698 10.918485 42.212008 O 0.0 **** 0.0
5969 H 46.745512 11.657453 42.638694 H 0.0 **** 0.0
5970 H 47.542088 10.258126 42.910796 H 0.0 **** 0.0
5971 O 36.584862 28.730647 0.580396 O 0.0 **** 0.0
5972 H 36.579264 29.017089 1.53851 H 0.0 **** 0.0
5973 H 36.351241 29.509538 -0.001681 H 0.0 **** 0.0
5974 O 12.610308 18.086021 30.08296 O 0.0 **** 0.0
5975 H 13.163124 17.255176 30.147408 H 0.0 **** 0.0
5976 H 11.641362 17.840252 30.054588 H 0.0 **** 0.0
5977 O 44.791194 18.257919 30.029594 O 0.0 **** 0.0
5978 H 45.282134 17.408693 30.224156 H 0.0 **** 0.0
5979 H 45.063739 18.958927 30.688662 H 0.0 **** 0.0
5980 O 1.551991 7.613199 12.538863 O 0.0 **** 0.0
5981 H 0.579008 7.469396 12.358064 H 0.0 **** 0.0
5982 H 1.795645 7.186918 13.410057 H 0.0 **** 0.0
5983 O 42.400715 29.750662 15.581023 O 0.0 **** 0.0
5984 H 43.017362 30.293079 16.151632 H 0.0 **** 0.0
5985 H 41.949154 29.057946 16.143428 H 0.0 **** 0.0
5986 O 3.61085 36.945437 20.761906 O 0.0 **** 0.0
5987 H 2.895309 36.313528 21.059826 H 0.0 **** 0.0
5988 H 3.275194 37.884997 20.829906 H 0.0 **** 0.0
5989 O 22.426919 14.36858 42.921257 O 0.0 **** 0.0
5990 H 22.263421 13.793925 42.11932 H 0.0 **** 0.0
5991 H 22.302039 13.825381 43.75156 H 0.0 **** 0.0
5992 O 20.856688 37.907559 17.588935 O 0.0 **** 0.0
5993 H 19.910953 37.60249 17.701103 H 0.0 **** 0.0
5994 H 21.351998 37.25407 17.0165 H 0.0 **** 0.0
5995 O 7.714683 22.02086 20.885276 O 0.0 **** 0.0
5996 H 7.912659 22.787253 20.274121 H 0.0 **** 0.0
5997 H 6.734679 21.996779 21.082948 H 0.0 **** 0.0
5998 O 33.40894 5.569655 48.039109 O 0.0 **** 0.0
5999 H 33.851004 5.44535 47.150745 H 0.0 **** 0.0
6000 H 32.416013 5.570075 47.920118 H 0.0 **** 0.0
6001 O 34.619661 46.892484 27.109361 O 0.0 **** 0.0
6002 H 34.885676 47.83953 27.289369 H 0.0 **** 0.0
6003 H 33.951787 46.598218 27.793038 H 0.0 **** 0.0
6004 O 41.83462 4.012129 35.657453 O 0.0 **** 0.0
6005 H 41.511369 4.581963 34.901899 H 0.0 **** 0.0
6006 H 41.054819 3.71701 36.20961 H 0.0 **** 0.0
6007 O 32.895173 22.92627 15.624594 O 0.0 **** 0.0
6008 H 33.067533 23.326012 16.524905 H 0.0 **** 0.0
6009 H 33.481147 22.125916 15.497588 H 0.0 **** 0.0
6010 O 28.415567 36.295219 36.03674 O 0.0 **** 0.0
6011 H 28.39744 35.374783 36.427295 H 0.0 **** 0.0
6012 H 29.350034 36.5226 35.762636 H 0.0 **** 0.0
6013 O 25.200404 45.516385 17.551924 O 0.0 **** 0.0
6014 H 25.964086 45.674452 18.177917 H 0.0 **** 0.0
6015 H 25.536321 45.070198 16.722382 H 0.0 **** 0.0
6016 O 41.561463 2.965689 7.895033 O 0.0 **** 0.0
6017 H 41.775301 2.097836 7.446514 H 0.0 **** 0.0
6018 H 40.862236 2.816114 8.594154 H 0.0 **** 0.0
6019 O 37.63421 33.96791 26.85653 O 0.0 **** 0.0
6020 H 38.252101 33.634404 27.568603 H 0.0 **** 0.0
6021 H 37.534825 33.269571 26.147652 H 0.0 **** 0.0
6022 O 31.645982 39.431507 16.562296 O 0.0 **** 0.0
6023 H 31.635495 38.746326 15.833956 H 0.0 **** 0.0
6024 H 31.173767 40.256185 16.250876 H 0.0 **** 0.0
6025 O 46.473682 43.30161 19.349728 O 0.0 **** 0.0
6026 H 46.360365 44.291769 19.267216 H 0.0 **** 0.0
6027 H 47.446488 43.073118 19.31098 H 0.0 **** 0.0
6028 O 23.585229 32.317835 12.594423 O 0.0 **** 0.0
6029 H 24.244434 32.27406 13.345152 H 0.0 **** 0.0
6030 H 23.53931 31.428731 12.138957 H 0.0 **** 0.0
6031 O 41.04924 18.818153 23.020559 O 0.0 **** 0.0
6032 H 41.699748 19.557158 22.845134 H 0.0 **** 0.0
6033 H 40.69602 18.899336 23.952604 H 0.0 **** 0.0
6034 O 44.461745 35.368232 13.795384 O 0.0 **** 0.0
6035 H 45.173505 35.221208 14.482294 H 0.0 **** 0.0
6036 H 44.864237 35.314 12.881534 H 0.0 **** 0.0
6037 O 5.430886 7.077633 39.656919 O 0.0 **** 0.0
6038 H 4.972793 6.633744 40.427099 H 0.0 **** 0.0
6039 H 5.224272 8.056053 39.665203 H 0.0 **** 0.0
6040 O 40.293913 10.761402 9.061526 O 0.0 **** 0.0
6041 H 39.827642 10.484232 8.221388 H 0.0 **** 0.0
6042 H 39.641367 10.764659 9.819309 H 0.0 **** 0.0
6043 O 34.989342 25.651462 15.638676 O 0.0 **** 0.0
6044 H 34.461979 24.990027 16.172019 H 0.0 **** 0.0
6045 H 35.831453 25.221423 15.313132 H 0.0 **** 0.0
6046 O 5.110903 5.95916 8.286836 O 0.0 **** 0.0
6047 H 5.505901 6.798752 8.659831 H 0.0 **** 0.0
6048 H 5.815822 5.449946 7.793021 H 0.0 **** 0.0
6049 O 24.998454 40.998722 6.635024 O 0.0 **** 0.0
6050 H 25.305947 40.858223 5.69387 H 0.0 **** 0.0
6051 H 24.399295 40.245253 6.905867 H 0.0 **** 0.0
6052 O 38.377518 27.273214 15.633468 O 0.0 **** 0.0
6053 H 38.984329 26.7506 16.232398 H 0.0 **** 0.0
6054 H 38.268846 28.199209 15.995113 H 0.0 **** 0.0
6055 O 0.561238 34.681513 5.28449 O 0.0 **** 0.0
6056 H 1.286492 34.893361 5.939616 H 0.0 **** 0.0
6057 H 0.653781 35.271659 4.482477 H 0.0 **** 0.0
6058 O 13.658467 24.336033 17.61373 O 0.0 **** 0.0
6059 H 14.40722 23.936054 18.14236 H 0.0 **** 0.0
6060 H 13.593089 25.313347 17.815337 H 0.0 **** 0.0
6061 O 13.306801 9.391993 0.329233 O 0.0 **** 0.0
6062 H 13.070558 8.976854 1.207819 H 0.0 **** 0.0
6063 H 14.169031 9.007097 -0.000126 H 0.0 **** 0.0
6064 O 8.003131 44.787986 23.474867 O 0.0 **** 0.0
6065 H 7.710038 44.245933 22.687252 H 0.0 **** 0.0
6066 H 8.924889 45.140247 23.312575 H 0.0 **** 0.0
6067 O 40.629663 11.63127 45.495131 O 0.0 **** 0.0
6068 H 41.484956 11.910521 45.058603 H 0.0 **** 0.0
6069 H 39.879914 12.196748 45.151365 H 0.0 **** 0.0
6070 O 12.209622 16.12424 16.188603 O 0.0 **** 0.0
6071 H 11.940163 17.062625 15.972065 H 0.0 **** 0.0
6072 H 11.393717 15.549548 16.252572 H 0.0 **** 0.0
6073 O 31.271547 19.878843 3.214472 O 0.0 **** 0.0
6074 H 30.457488 20.17322 3.715185 H 0.0 **** 0.0
6075 H 31.95626 20.607445 3.233707 H 0.0 **** 0.0
6076 O 41.433524 42.37684 3.078893 O 0.0 **** 0.0
6077 H 41.962821 43.225313 3.079418 H 0.0 **** 0.0
6078 H 40.46065 42.590994 2.991042 H 0.0 **** 0.0
6079 O 24.392493 42.215279 24.20869 O 0.0 **** 0.0
6080 H 23.416572 42.177197 24.423615 H 0.0 **** 0.0
6081 H 24.614742 41.504518 23.541242 H 0.0 **** 0.0
6082 O 32.888008 37.3753 13.885604 O 0.0 **** 0.0
6083 H 33.746727 37.701425 13.490245 H 0.0 **** 0.0
6084 H 32.172808 38.058694 13.738894 H 0.0 **** 0.0
6085 O 28.817166 35.621851 40.30476 O 0.0 **** 0.0
6086 H 27.940361 36.097001 40.230536 H 0.0 **** 0.0
6087 H 29.558411 36.292567 40.332305 H 0.0 **** 0.0
6088 O 40.952412 20.401939 15.112937 O 0.0 **** 0.0
6089 H 41.238616 20.657018 14.189311 H 0.0 **** 0.0
6090 H 41.760269 20.263645 15.685916 H 0.0 **** 0.0
6091 O 34.171632 21.294592 4.042121 O 0.0 **** 0.0
6092 H 34.824652 20.878874 3.409028 H 0.0 **** 0.0
6093 H 33.719025 20.577685 4.572455 H 0.0 **** 0.0
6094 O 3.526127 16.091006 21.446993 O 0.0 **** 0.0
6095 H 3.648198 15.131661 21.192399 H 0.0 **** 0.0
6096 H 2.680168 16.191787 21.970692 H 0.0 **** 0.0
6097 O 14.328607 30.515159 28.452059 O 0.0 **** 0.0
6098 H 13.946108 29.791396 27.877668 H 0.0 **** 0.0
6099 H 15.321441 30.408195 28.505925 H 0.0 **** 0.0
6100 O 23.592481 44.91496 29.003779 O 0.0 **** 0.0
6101 H 23.914164 44.242708 28.33695 H 0.0 **** 0.0
6102 H 23.27678 44.443068 29.827013 H 0.0 **** 0.0
6103 O 39.281955 12.277837 0.397086 O 0.0 **** 0.0
6104 H 38.479227 12.861737 0.518543 H 0.0 **** 0.0
6105 H 40.087675 12.73685 0.771498 H 0.0 **** 0.0
6106 O 13.089912 41.40274 34.189192 O 0.0 **** 0.0
6107 H 12.376056 41.686913 33.5491 H 0.0 **** 0.0
6108 H 13.633762 42.198246 34.456516 H 0.0 **** 0.0
6109 O 3.364921 26.941058 27.948337 O 0.0 **** 0.0
6110 H 3.169266 27.796795 28.427395 H 0.0 **** 0.0
6111 H 3.589476 27.137297 26.993807 H 0.0 **** 0.0
6112 O 16.535473 35.790216 17.529752 O 0.0 **** 0.0
6113 H 17.302007 35.177287 17.721604 H 0.0 **** 0.0
6114 H 16.882103 36.650232 17.155209 H 0.0 **** 0.0
6115 O 6.241812 20.177084 39.880097 O 0.0 **** 0.0
6116 H 7.04774 19.698825 39.531082 H 0.0 **** 0.0
6117 H 5.566437 19.508561 40.19156 H 0.0 **** 0.0
6118 O 35.937989 4.712933 16.613807 O 0.0 **** 0.0
6119 H 35.978943 3.7257 16.76794 H 0.0 **** 0.0
6120 H 34.987034 4.989369 16.47477 H 0.0 **** 0.0
6121 O 10.835871 5.246565 26.393524 O 0.0 **** 0.0
6122 H 11.429755 4.542447 26.782862 H 0.0 **** 0.0
6123 H 10.678968 5.052132 25.425206 H 0.0 **** 0.0
6124 O 43.102865 18.865145 38.975531 O 0.0 **** 0.0
6125 H 42.492257 18.080779 39.085034 H 0.0 **** 0.0
6126 H 44.049991 18.546911 38.933783 H 0.0 **** 0.0
6127 O 1.925142 33.261806 38.509816 O 0.0 **** 0.0
6128 H 1.761026 34.248277 38.511591 H 0.0 **** 0.0
6129 H 2.830929 33.073963 38.88972 H 0.0 **** 0.0
6130 O 43.307037 39.477629 38.155291 O 0.0 **** 0.0
6131 H 43.406446 39.96127 39.02493 H 0.0 **** 0.0
6132 H 42.3386 39.297283 37.98305 H 0.0 **** 0.0
6133 O 23.472178 18.721437 39.568206 O 0.0 **** 0.0
6134 H 23.873514 18.857992 40.473935 H 0.0 **** 0.0
6135 H 23.518161 17.752275 39.325979 H 0.0 **** 0.0
6136 O 36.154876 25.210014 29.959751 O 0.0 **** 0.0
6137 H 36.067444 24.214164 29.933282 H 0.0 **** 0.0
6138 H 36.918351 25.493085 29.379199 H 0.0 **** 0.0
6139 O 40.452639 35.662943 19.369092 O 0.0 **** 0.0
6140 H 39.460771 35.790387 19.373444 H 0.0 **** 0.0
6141 H 40.902945 36.554266 19.315896 H 0.0 **** 0.0
6142 O 19.684871 9.479164 28.636013 O 0.0 **** 0.0
6143 H 19.614375 10.460023 28.454333 H 0.0 **** 0.0
6144 H 19.106257 8.978523 27.992098 H 0.0 **** 0.0
6145 O 23.648074 4.80891 32.970789 O 0.0 **** 0.0
6146 H 23.518031 3.953615 32.46917 H 0.0 **** 0.0
6147 H 24.381519 5.337649 32.543521 H 0.0 **** 0.0
6148 O 38.429411 37.628102 36.361917 O 0.0 **** 0.0
6149 H 37.644841 37.560849 35.745484 H 0.0 **** 0.0
6150 H 38.699093 38.586598 36.454766 H 0.0 **** 0.0
6151 O 15.162724 0.578318 37.953774 O 0.0 **** 0.0
6152 H 15.463146 1.512437 37.760819 H 0.0 **** 0.0
6153 H 15.961746 -0.006582 38.093486 H 0.0 **** 0.0
6154 O 42.887888 25.045844 47.584147 O 0.0 **** 0.0
6155 H 42.849154 24.699165 46.64693 H 0.0 **** 0.0
6156 H 41.981027 24.982114 48.000807 H 0.0 **** 0.0
6157 O 28.13777 17.706944 15.356397 O 0.0 **** 0.0
6158 H 29.112008 17.691559 15.581534 H 0.0 **** 0.0
6159 H 27.671335 18.371799 15.939894 H 0.0 **** 0.0
6160 O 28.58819 21.541295 7.035859 O 0.0 **** 0.0
6161 H 28.90125 21.699655 7.97233 H 0.0 **** 0.0
6162 H 29.3727 21.326723 6.453994 H 0.0 **** 0.0
6163 O 39.06441 19.041322 15.00495 O 0.0 **** 0.0
6164 H 39.577635 18.668018 15.777806 H 0.0 **** 0.0
6165 H 38.322106 19.618487 15.345435 H 0.0 **** 0.0
6166 O 40.6827 46.591575 38.854064 O 0.0 **** 0.0
6167 H 41.340184 46.87388 38.155435 H 0.0 **** 0.0
6168 H 40.03466 45.940832 38.458286 H 0.0 **** 0.0
6169 O 25.822244 13.409774 47.391831 O 0.0 **** 0.0
6170 H 26.443801 12.916267 48.000255 H 0.0 **** 0.0
6171 H 25.940508 14.39425 47.521767 H 0.0 **** 0.0
6172 O 6.730531 33.661694 35.26334 O 0.0 **** 0.0
6173 H 6.714709 32.671234 35.400459 H 0.0 **** 0.0
6174 H 5.843083 34.047327 35.5159 H 0.0 **** 0.0
6175 O 4.575778 21.265561 10.833169 O 0.0 **** 0.0
6176 H 3.718841 21.780795 10.817174 H 0.0 **** 0.0
6177 H 4.378801 20.28855 10.751227 H 0.0 **** 0.0
6178 O 14.931263 30.523838 43.489824 O 0.0 **** 0.0
6179 H 14.760341 29.890237 44.244409 H 0.0 **** 0.0
6180 H 15.829869 30.946781 43.606824 H 0.0 **** 0.0
6181 O 11.908943 22.510861 11.0618 O 0.0 **** 0.0
6182 H 12.114293 22.324396 12.022594 H 0.0 **** 0.0
6183 H 10.959723 22.261766 10.869453 H 0.0 **** 0.0
6184 O 44.352351 38.489872 31.498623 O 0.0 **** 0.0
6185 H 44.303218 39.263822 32.13001 H 0.0 **** 0.0
6186 H 45.29421 38.377435 31.181884 H 0.0 **** 0.0
6187 O 13.742787 27.42656 18.396743 O 0.0 **** 0.0
6188 H 14.055457 28.267951 17.955877 H 0.0 **** 0.0
6189 H 13.104777 27.653173 19.132715 H 0.0 **** 0.0
6190 O 3.328442 45.151729 30.973724 O 0.0 **** 0.0
6191 H 2.494644 45.627505 31.253868 H 0.0 **** 0.0
6192 H 3.289512 44.960519 29.992915 H 0.0 **** 0.0
6193 O 34.26013 45.246827 16.22105 O 0.0 **** 0.0
6194 H 34.087211 45.60174 15.302248 H 0.0 **** 0.0
6195 H 34.596983 44.307383 16.157502 H 0.0 **** 0.0
6196 O 9.014524 3.503677 10.040246 O 0.0 **** 0.0
6197 H 9.495873 3.161214 10.847145 H 0.0 **** 0.0
6198 H 8.706087 2.732155 9.483754 H 0.0 **** 0.0
6199 O 26.474845 26.416761 15.912841 O 0.0 **** 0.0
6200 H 26.269882 25.679809 15.268671 H 0.0 **** 0.0
6201 H 25.641014 26.935314 16.10229 H 0.0 **** 0.0
6202 O 45.249893 15.269141 13.835018 O 0.0 **** 0.0
6203 H 45.546319 15.981908 14.470751 H 0.0 **** 0.0
6204 H 44.68466 14.602804 14.321403 H 0.0 **** 0.0
6205 O 33.036374 28.0896 17.674939 O 0.0 **** 0.0
6206 H 33.942709 27.767712 17.401064 H 0.0 **** 0.0
6207 H 32.928175 29.047305 17.408186 H 0.0 **** 0.0
6208 O 6.817042 39.877859 11.547441 O 0.0 **** 0.0
6209 H 6.951781 38.905917 11.74041 H 0.0 **** 0.0
6210 H 5.846613 40.103389 11.633849 H 0.0 **** 0.0
6211 O 35.243752 26.067922 38.247822 O 0.0 **** 0.0
6212 H 36.18741 25.808193 38.45304 H 0.0 **** 0.0
6213 H 34.969215 25.664102 37.375113 H 0.0 **** 0.0
6214 O 37.069331 19.803923 43.326438 O 0.0 **** 0.0
6215 H 37.994284 20.166294 43.211491 H 0.0 **** 0.0
6216 H 37.104717 18.805151 43.361983 H 0.0 **** 0.0
6217 O 30.447051 6.552072 8.667269 O 0.0 **** 0.0
6218 H 30.033443 5.646567 8.76241 H 0.0 **** 0.0
6219 H 31.406264 6.511398 8.947124 H 0.0 **** 0.0
6220 O 31.779424 45.735978 15.195195 O 0.0 **** 0.0
6221 H 32.172819 46.597585 14.874359 H 0.0 **** 0.0
6222 H 32.001811 45.006671 14.548111 H 0.0 **** 0.0
6223 O 2.936813 38.894043 3.060658 O 0.0 **** 0.0
6224 H 2.970779 39.893102 3.088777 H 0.0 **** 0.0
6225 H 3.862139 38.532184 2.947113 H 0.0 **** 0.0
6226 O 14.901924 25.927208 29.290675 O 0.0 **** 0.0
6227 H 15.619587 25.289021 29.011856 H 0.0 **** 0.0
6228 H 14.813127 26.649331 28.604587 H 0.0 **** 0.0
6229 O 21.586627 16.472708 6.147136 O 0.0 **** 0.0
6230 H 21.632767 17.240453 6.786277 H 0.0 **** 0.0
6231 H 21.407587 16.816728 5.225367 H 0.0 **** 0.0
6232 O 29.383332 43.270558 27.422248 O 0.0 **** 0.0
6233 H 30.286165 42.843402 27.472178 H 0.0 **** 0.0
6234 H 28.682175 42.560814 27.353648 H 0.0 **** 0.0
6235 O 17.392957 12.448392 30.728917 O 0.0 **** 0.0
6236 H 16.426074 12.477634 30.475256 H 0.0 **** 0.0
6237 H 17.565569 11.639942 31.291658 H 0.0 **** 0.0
6238 O 23.004957 44.669097 3.486444 O 0.0 **** 0.0
6239 H 23.261178 43.704197 3.544604 H 0.0 **** 0.0
6240 H 22.334148 44.792291 2.755075 H 0.0 **** 0.0
6241 O 10.011296 6.993681 39.996223 O 0.0 **** 0.0
6242 H 9.034375 6.78057 40.012723 H 0.0 **** 0.0
6243 H 10.246086 7.543344 40.797975 H 0.0 **** 0.0
6244 O 21.515671 9.80061 29.937181 O 0.0 **** 0.0
6245 H 21.729892 10.184397 29.038916 H 0.0 **** 0.0
6246 H 21.069672 10.497064 30.499409 H 0.0 **** 0.0
6247 O 28.961284 21.365607 27.674752 O 0.0 **** 0.0
6248 H 29.515435 22.052334 27.204237 H 0.0 **** 0.0
6249 H 29.063621 20.483123 27.215609 H 0.0 **** 0.0
6250 O 20.811123 17.736452 24.927856 O 0.0 **** 0.0
6251 H 21.639786 18.253318 24.712845 H 0.0 **** 0.0
6252 H 21.057367 16.798554 25.172345 H 0.0 **** 0.0
6253 O 21.872064 37.268 43.104155 O 0.0 **** 0.0
6254 H 22.356212 38.138024 43.010767 H 0.0 **** 0.0
6255 H 20.888594 37.438735 43.164978 H 0.0 **** 0.0
6256 O 20.101913 30.262166 29.681621 O 0.0 **** 0.0
6257 H 19.574411 29.576811 30.18371 H 0.0 **** 0.0
6258 H 21.077258 30.056313 29.761553 H 0.0 **** 0.0
6259 O 18.913932 7.061079 40.627157 O 0.0 **** 0.0
6260 H 19.703484 7.631957 40.401841 H 0.0 **** 0.0
6261 H 19.175412 6.096994 40.579929 H 0.0 **** 0.0
6262 O 45.610529 30.249004 13.200105 O 0.0 **** 0.0
6263 H 46.066755 29.915843 14.025286 H 0.0 **** 0.0
6264 H 44.663112 30.48571 13.415591 H 0.0 **** 0.0
6265 O 34.986617 18.37197 -0.001137 O 0.0 **** 0.0
6266 H 34.966726 18.739652 0.928636 H 0.0 **** 0.0
6267 H 35.115291 17.380913 0.035078 H 0.0 **** 0.0
6268 O 29.445484 39.697418 27.931851 O 0.0 **** 0.0
6269 H 29.874068 40.376761 28.527563 H 0.0 **** 0.0
6270 H 28.864679 40.160411 27.26225 H 0.0 **** 0.0
6271 O 45.231624 5.977556 11.539479 O 0.0 **** 0.0
6272 H 44.470579 6.620729 11.624335 H 0.0 **** 0.0
6273 H 45.049953 5.170311 12.101096 H 0.0 **** 0.0
6274 O 4.532249 27.132124 21.06631 O 0.0 **** 0.0
6275 H 4.735133 27.411753 22.00477 H 0.0 **** 0.0
6276 H 3.689711 26.593575 21.053789 H 0.0 **** 0.0
6277 O 42.90751 19.035697 13.103962 O 0.0 **** 0.0
6278 H 43.09753 20.013039 13.010374 H 0.0 **** 0.0
6279 H 42.529433 18.855149 14.011995 H 0.0 **** 0.0
6280 O 44.84166 16.179184 6.543178 O 0.0 **** 0.0
6281 H 44.146432 15.759781 5.959378 H 0.0 **** 0.0
6282 H 44.554808 17.104632 6.790819 H 0.0 **** 0.0
6283 O 47.106661 36.309832 28.922115 O 0.0 **** 0.0
6284 H 47.475789 36.004177 29.79983 H 0.0 **** 0.0
6285 H 46.51759 35.596784 28.541825 H 0.0 **** 0.0
6286 O 25.071486 33.829674 22.642638 O 0.0 **** 0.0
6287 H 24.331468 33.717137 23.30579 H 0.0 **** 0.0
6288 H 25.511744 32.946353 22.481455 H 0.0 **** 0.0
6289 O 0.691714 16.28032 3.304565 O 0.0 **** 0.0
6290 H -0.000779 15.983902 3.962328 H 0.0 **** 0.0
6291 H 1.602551 16.091744 3.671825 H 0.0 **** 0.0
6292 O 21.20678 20.380585 41.815103 O 0.0 **** 0.0
6293 H 20.519157 20.881096 42.34115 H 0.0 **** 0.0
6294 H 20.956225 19.413308 41.774354 H 0.0 **** 0.0
6295 O 31.928131 37.948089 11.346468 O 0.0 **** 0.0
6296 H 31.698054 38.416239 10.49326 H 0.0 **** 0.0
6297 H 31.857951 36.95942 11.213539 H 0.0 **** 0.0
6298 O 13.731258 8.487583 44.234678 O 0.0 **** 0.0
6299 H 14.036386 7.707543 43.688329 H 0.0 **** 0.0
6300 H 13.182549 9.09934 43.664823 H 0.0 **** 0.0
6301 O 15.571189 45.200766 14.431282 O 0.0 **** 0.0
6302 H 15.769786 44.221647 14.387139 H 0.0 **** 0.0
6303 H 14.581523 45.338602 14.471599 H 0.0 **** 0.0
6304 O 25.301545 35.95099 22.109693 O 0.0 **** 0.0
6305 H 26.244839 35.754266 22.377201 H 0.0 **** 0.0
6306 H 25.279576 36.237163 21.151735 H 0.0 **** 0.0
6307 O 39.364606 18.799553 2.263055 O 0.0 **** 0.0
6308 H 38.368111 18.716934 2.247713 H 0.0 **** 0.0
6309 H 39.653355 19.476538 1.586019 H 0.0 **** 0.0
6310 O 43.079379 39.096588 46.048698 O 0.0 **** 0.0
6311 H 44.058238 39.299521 46.021936 H 0.0 **** 0.0
6312 H 42.562026 39.918127 45.80894 H 0.0 **** 0.0
6313 O 28.600487 21.919408 10.148044 O 0.0 **** 0.0
6314 H 29.437366 21.382537 10.25513 H 0.0 **** 0.0
6315 H 27.805538 21.328327 10.284947 H 0.0 **** 0.0
6316 O 25.437294 19.388925 18.637456 O 0.0 **** 0.0
6317 H 24.476436 19.167088 18.471314 H 0.0 **** 0.0
6318 H 25.542129 20.380565 18.7131 H 0.0 **** 0.0
6319 O 45.800609 25.935525 35.980774 O 0.0 **** 0.0
6320 H 44.96174 25.925956 36.525081 H 0.0 **** 0.0
6321 H 45.599115 26.280462 35.063996 H 0.0 **** 0.0
6322 O 17.249641 45.116155 2.571723 O 0.0 **** 0.0
6323 H 16.562156 44.529672 3.000052 H 0.0 **** 0.0
6324 H 17.401315 44.818283 1.62921 H 0.0 **** 0.0
6325 O 21.444567 28.767678 3.997702 O 0.0 **** 0.0
6326 H 22.013901 29.555699 3.763299 H 0.0 **** 0.0
6327 H 22.015739 27.948716 4.053629 H 0.0 **** 0.0
6328 O 12.260983 26.125563 25.869084 O 0.0 **** 0.0
6329 H 12.785734 26.930668 26.145679 H 0.0 **** 0.0
6330 H 11.301455 26.250203 26.121739 H 0.0 **** 0.0
6331 O 26.597417 47.453564 6.901091 O 0.0 **** 0.0
6332 H 26.534701 46.482094 7.129946 H 0.0 **** 0.0
6333 H 26.297319 48.00018 7.682894 H 0.0 **** 0.0
6334 O 12.373508 -0.004554 13.077384 O 0.0 **** 0.0
6335 H 12.018021 0.93016 13.078087 H 0.0 **** 0.0
6336 H 13.370548 0.018021 13.151304 H 0.0 **** 0.0
6337 O 7.30868 25.696372 23.645398 O 0.0 **** 0.0
6338 H 6.757117 26.522491 23.529776 H 0.0 **** 0.0
6339 H 8.276319 25.94507 23.688837 H 0.0 **** 0.0
6340 O 10.231287 32.245142 19.451287 O 0.0 **** 0.0
6341 H 10.568437 33.137758 19.151904 H 0.0 **** 0.0
6342 H 9.233105 32.229121 19.392646 H 0.0 **** 0.0
6343 O 21.435481 44.788753 7.378796 O 0.0 **** 0.0
6344 H 22.31022 44.311129 7.461084 H 0.0 **** 0.0
6345 H 21.60041 45.767343 7.255412 H 0.0 **** 0.0
6346 O 43.642947 46.949795 16.11961 O 0.0 **** 0.0
6347 H 42.756518 47.381717 16.286194 H 0.0 **** 0.0
6348 H 44.367946 47.513318 16.515693 H 0.0 **** 0.0
6349 O 38.405334 33.219457 13.969388 O 0.0 **** 0.0
6350 H 37.809274 33.274741 14.770462 H 0.0 **** 0.0
6351 H 38.260347 32.345319 13.505789 H 0.0 **** 0.0
6352 O 12.222916 15.412928 14.107162 O 0.0 **** 0.0
6353 H 13.117605 15.859383 14.123654 H 0.0 **** 0.0
6354 H 11.507947 16.103299 13.996393 H 0.0 **** 0.0
6355 O 20.313698 40.145624 27.743894 O 0.0 **** 0.0
6356 H 20.957069 40.22458 26.98238 H 0.0 **** 0.0
6357 H 19.377842 40.21244 27.397813 H 0.0 **** 0.0
6358 O 37.250699 45.872625 43.777006 O 0.0 **** 0.0
6359 H 36.499412 45.590436 43.180349 H 0.0 **** 0.0
6360 H 37.208034 45.357352 44.633007 H 0.0 **** 0.0
6361 O 3.839988 0.75346 6.560217 O 0.0 **** 0.0
6362 H 3.724743 0.000472 5.912304 H 0.0 **** 0.0
6363 H 4.809893 0.986477 6.631284 H 0.0 **** 0.0
6364 O 30.770026 14.94052 44.753678 O 0.0 **** 0.0
6365 H 30.288349 14.399408 45.443061 H 0.0 **** 0.0
6366 H 31.736469 14.683704 44.743908 H 0.0 **** 0.0
6367 O 0.883705 34.441421 43.56742 O 0.0 **** 0.0
6368 H 0.376379 33.609169 43.343723 H 0.0 **** 0.0
6369 H 0.262412 35.111338 43.973951 H 0.0 **** 0.0
6370 O 13.54339 31.716744 14.92039 O 0.0 **** 0.0
6371 H 14.215755 32.456203 14.885909 H 0.0 **** 0.0
6372 H 14.016873 30.835958 14.929941 H 0.0 **** 0.0
6373 O 5.744723 20.211608 19.852355 O 0.0 **** 0.0
6374 H 5.4669 19.796446 20.718679 H 0.0 **** 0.0
6375 H 5.144336 19.88906 19.120535 H 0.0 **** 0.0
6376 O 9.202071 23.92093 14.901894 O 0.0 **** 0.0
6377 H 8.384402 23.477792 14.534323 H 0.0 **** 0.0
6378 H 9.285288 24.839685 14.515855 H 0.0 **** 0.0
6379 O 20.210785 15.900425 21.791151 O 0.0 **** 0.0
6380 H 20.762138 16.732385 21.85373 H 0.0 **** 0.0
6381 H 20.813337 15.107024 21.704502 H 0.0 **** 0.0
6382 O 27.58741 12.227747 31.236456 O 0.0 **** 0.0
6383 H 26.941859 12.891548 30.858706 H 0.0 **** 0.0
6384 H 27.401916 12.099719 32.210758 H 0.0 **** 0.0
6385 O 42.436979 26.023985 44.941379 O 0.0 **** 0.0
6386 H 43.173584 26.497565 45.424284 H 0.0 **** 0.0
6387 H 42.828595 25.409688 44.256296 H 0.0 **** 0.0
6388 O 25.470605 24.970788 12.109809 O 0.0 **** 0.0
6389 H 24.823179 25.410751 11.487446 H 0.0 **** 0.0
6390 H 26.100572 24.398126 11.585153 H 0.0 **** 0.0
6391 O 6.573249 0.507946 12.64707 O 0.0 **** 0.0
6392 H 5.724754 -0.000319 12.499468 H 0.0 **** 0.0
6393 H 7.160965 -0.000289 13.276634 H 0.0 **** 0.0
6394 O 3.777737 30.326162 27.539179 O 0.0 **** 0.0
6395 H 2.940566 29.923593 27.909512 H 0.0 **** 0.0
6396 H 4.467148 30.384603 28.261232 H 0.0 **** 0.0
6397 O 37.053376 3.113666 29.848347 O 0.0 **** 0.0
6398 H 37.633612 3.092894 30.662568 H 0.0 **** 0.0
6399 H 37.575431 3.476114 29.076237 H 0.0 **** 0.0
6400 O 46.68539 35.090884 36.558667 O 0.0 **** 0.0
6401 H 47.12678 34.256103 36.229459 H 0.0 **** 0.0
6402 H 46.305104 35.594889 35.78315 H 0.0 **** 0.0
6403 O 42.373777 33.114883 27.711876 O 0.0 **** 0.0
6404 H 41.433354 32.862265 27.939586 H 0.0 **** 0.0
6405 H 42.882337 32.297341 27.44159 H 0.0 **** 0.0
6406 O 14.147754 25.95491 24.724993 O 0.0 **** 0.0
6407 H 14.312036 25.055304 24.320291 H 0.0 **** 0.0
6408 H 13.698003 26.544923 24.054416 H 0.0 **** 0.0
6409 O 13.372643 23.371785 1.370792 O 0.0 **** 0.0
6410 H 12.563307 23.179701 1.925897 H 0.0 **** 0.0
6411 H 14.156545 22.8731 1.740756 H 0.0 **** 0.0
6412 O 5.020465 47.749306 12.14664 O 0.0 **** 0.0
6413 H 5.918993 47.841147 12.575914 H 0.0 **** 0.0
6414 H 4.975869 46.883075 11.648927 H 0.0 **** 0.0
6415 O 42.256192 39.356606 23.59994 O 0.0 **** 0.0
6416 H 42.985294 39.225986 24.271812 H 0.0 **** 0.0
6417 H 41.796764 40.228058 23.771874 H 0.0 **** 0.0
6418 O 23.129946 26.129453 31.939838 O 0.0 **** 0.0
6419 H 23.864836 26.652235 32.371923 H 0.0 **** 0.0
6420 H 23.067447 25.227163 32.366488 H 0.0 **** 0.0
6421 O 5.465469 3.155023 27.530462 O 0.0 **** 0.0
6422 H 6.131854 3.859545 27.774678 H 0.0 **** 0.0
6423 H 5.212841 3.254545 26.567998 H 0.0 **** 0.0
6424 O 23.174066 46.863975 34.317556 O 0.0 **** 0.0
6425 H 22.790276 46.99984 35.230961 H 0.0 **** 0.0
6426 H 24.122758 46.55777 34.396841 H 0.0 **** 0.0
6427 O 35.445211 28.800473 20.135689 O 0.0 **** 0.0
6428 H 35.162258 28.105911 20.797191 H 0.0 **** 0.0
6429 H 36.079027 29.438554 20.572945 H 0.0 **** 0.0
6430 O 11.422913 7.081419 36.140929 O 0.0 **** 0.0
6431 H 12.146302 7.081571 36.831416 H 0.0 **** 0.0
6432 H 11.628636 7.767018 35.442577 H 0.0 **** 0.0
6433 O 10.126729 0.396896 46.856067 O 0.0 **** 0.0
6434 H 9.326073 -2.2e-05 46.407215 H 0.0 **** 0.0
6435 H 10.777473 0.707481 46.16315 H 0.0 **** 0.0
6436 O 13.226845 32.124029 25.154442 O 0.0 **** 0.0
6437 H 12.313573 31.720505 25.210717 H 0.0 **** 0.0
6438 H 13.432803 32.351075 24.202552 H 0.0 **** 0.0
6439 O 28.668683 37.272963 0.917389 O 0.0 **** 0.0
6440 H 27.989381 38.00685 0.922101 H 0.0 **** 0.0
6441 H 28.204216 36.388606 0.964773 H 0.0 **** 0.0
6442 O 14.255877 10.101816 20.162884 O 0.0 **** 0.0
6443 H 14.601342 10.557995 19.342751 H 0.0 **** 0.0
6444 H 14.526747 9.139283 20.147972 H 0.0 **** 0.0
6445 O 20.292115 38.978234 37.043327 O 0.0 **** 0.0
6446 H 20.215235 39.908649 37.401771 H 0.0 **** 0.0
6447 H 20.866812 38.9828 36.224936 H 0.0 **** 0.0
6448 O 36.942054 14.952233 13.628606 O 0.0 **** 0.0
6449 H 37.564101 15.676876 13.925276 H 0.0 **** 0.0
6450 H 37.189651 14.094941 14.080059 H 0.0 **** 0.0
6451 O 22.788622 17.710651 3.125645 O 0.0 **** 0.0
6452 H 22.070065 18.279677 2.725711 H 0.0 **** 0.0
6453 H 22.666588 16.763118 2.830092 H 0.0 **** 0.0
6454 O 27.00515 0.820741 2.800691 O 0.0 **** 0.0
6455 H 26.041072 0.55685 2.769423 H 0.0 **** 0.0
6456 H 27.575903 -0.000368 2.791576 H 0.0 **** 0.0
6457 O 14.758499 0.073517 30.620106 O 0.0 **** 0.0
6458 H 15.483159 0.012656 29.933646 H 0.0 **** 0.0
6459 H 13.867557 0.062755 30.166048 H 0.0 **** 0.0
6460 O 30.476819 1.23717 17.936908 O 0.0 **** 0.0
6461 H 30.706714 1.754269 18.76142 H 0.0 **** 0.0
6462 H 29.525956 1.417213 17.684901 H 0.0 **** 0.0
6463 O 11.807827 17.089237 39.483942 O 0.0 **** 0.0
6464 H 12.759791 17.15043 39.784081 H 0.0 **** 0.0
6465 H 11.481779 16.150875 39.598976 H 0.0 **** 0.0
6466 O 5.747143 29.490979 34.608787 O 0.0 **** 0.0
6467 H 4.749527 29.507052 34.67636 H 0.0 **** 0.0
6468 H 6.055043 28.553686 34.445256 H 0.0 **** 0.0
6469 O 35.853406 47.574909 45.452181 O 0.0 **** 0.0
6470 H 36.574644 47.389487 46.119637 H 0.0 **** 0.0
6471 H 35.024888 47.867808 45.929497 H 0.0 **** 0.0
6472 O 4.995791 11.759517 7.329907 O 0.0 **** 0.0
6473 H 5.864555 11.268319 7.393448 H 0.0 **** 0.0
6474 H 4.649922 11.705123 6.393169 H 0.0 **** 0.0
6475 O 31.449925 23.888126 29.007645 O 0.0 **** 0.0
6476 H 31.804941 23.125965 29.549066 H 0.0 **** 0.0
6477 H 32.178487 24.555731 28.85414 H 0.0 **** 0.0
6478 O 7.091034 3.990183 42.097873 O 0.0 **** 0.0
6479 H 7.462004 4.906686 41.947982 H 0.0 **** 0.0
6480 H 7.827314 3.374426 42.378583 H 0.0 **** 0.0
6481 O 38.553119 13.429368 20.442587 O 0.0 **** 0.0
6482 H 38.447702 14.232264 19.855808 H 0.0 **** 0.0
6483 H 37.730439 13.312973 20.999105 H 0.0 **** 0.0
6484 O 1.25465 4.433335 26.326319 O 0.0 **** 0.0
6485 H 0.47616 4.985095 26.027022 H 0.0 **** 0.0
6486 H 2.032698 4.598221 25.720087 H 0.0 **** 0.0
6487 O 37.153463 26.321225 8.157231 O 0.0 **** 0.0
6488 H 37.512677 27.254179 8.182207 H 0.0 **** 0.0
6489 H 36.157923 26.349721 8.066948 H 0.0 **** 0.0
6490 O 25.920702 33.378338 31.077258 O 0.0 **** 0.0
6491 H 25.331724 34.178588 31.19025 H 0.0 **** 0.0
6492 H 25.440167 32.56269 31.399542 H 0.0 **** 0.0
6493 O 1.804439 11.926523 21.983401 O 0.0 **** 0.0
6494 H 1.843259 10.935201 22.109244 H 0.0 **** 0.0
6495 H 0.852488 12.230389 22.02236 H 0.0 **** 0.0
6496 O 25.959327 18.814104 35.565999 O 0.0 **** 0.0
6497 H 25.476787 18.371875 34.809922 H 0.0 **** 0.0
6498 H 26.262472 19.723585 35.281376 H 0.0 **** 0.0
6499 O 35.17277 26.054696 27.937184 O 0.0 **** 0.0
6500 H 34.913912 26.276381 26.997018 H 0.0 **** 0.0
6501 H 34.936738 25.102684 28.132185 H 0.0 **** 0.0
6502 O 16.237 23.155868 25.482951 O 0.0 **** 0.0
6503 H 17.14961 23.109484 25.88922 H 0.0 **** 0.0
6504 H 16.310508 23.455455 24.531685 H 0.0 **** 0.0
6505 O 34.215655 20.542977 22.575523 O 0.0 **** 0.0
6506 H 34.751836 21.049904 21.900542 H 0.0 **** 0.0
6507 H 33.821402 21.182004 23.236031 H 0.0 **** 0.0
6508 O 5.371815 25.965898 27.973959 O 0.0 **** 0.0
6509 H 5.391987 25.655563 28.924406 H 0.0 **** 0.0
6510 H 4.797444 25.350191 27.434454 H 0.0 **** 0.0
6511 O 35.278894 5.971134 24.588941 O 0.0 **** 0.0
6512 H 35.681313 6.780526 25.016734 H 0.0 **** 0.0
6513 H 35.449102 5.170837 25.163933 H 0.0 **** 0.0
6514 O 39.246274 26.259255 19.285274 O 0.0 **** 0.0
6515 H 39.823752 25.970859 20.049087 H 0.0 **** 0.0
6516 H 39.573219 25.834108 18.441224 H 0.0 **** 0.0
6517 O 43.039701 15.325021 18.562784 O 0.0 **** 0.0
6518 H 43.089575 14.570061 19.216703 H 0.0 **** 0.0
6519 H 43.572559 15.096039 17.748111 H 0.0 **** 0.0
6520 O 17.001745 28.269704 28.934376 O 0.0 **** 0.0
6521 H 17.366071 27.350736 28.783292 H 0.0 **** 0.0
6522 H 17.458967 28.684274 29.721233 H 0.0 **** 0.0
6523 O 27.452627 16.454301 27.047391 O 0.0 **** 0.0
6524 H 27.293697 15.518197 26.733524 H 0.0 **** 0.0
6525 H 26.575055 16.900137 27.223916 H 0.0 **** 0.0
6526 O 43.121936 26.510839 2.038542 O 0.0 **** 0.0
6527 H 43.540859 27.126123 2.706368 H 0.0 **** 0.0
6528 H 43.430566 25.574878 2.20821 H 0.0 **** 0.0
6529 O 24.969906 3.918551 17.738457 O 0.0 **** 0.0
6530 H 25.588034 3.521542 18.416958 H 0.0 **** 0.0
6531 H 25.262577 4.85094 17.526191 H 0.0 **** 0.0
6532 O 38.921367 21.835642 39.821792 O 0.0 **** 0.0
6533 H 38.39398 21.095572 39.404392 H 0.0 **** 0.0
6534 H 38.300974 22.564074 40.112587 H 0.0 **** 0.0
6535 O 3.653298 35.747657 6.408667 O 0.0 **** 0.0
6536 H 2.884735 36.370279 6.55603 H 0.0 **** 0.0
6537 H 4.469033 36.275389 6.171729 H 0.0 **** 0.0
6538 O 19.151035 41.044024 22.483755 O 0.0 **** 0.0
6539 H 19.740148 40.552297 21.842496 H 0.0 **** 0.0
6540 H 18.734637 41.826589 22.020864 H 0.0 **** 0.0
6541 O 35.777824 34.238946 21.379631 O 0.0 **** 0.0
6542 H 36.21302 35.137659 21.434245 H 0.0 **** 0.0
6543 H 34.783892 34.34888 21.38834 H 0.0 **** 0.0
6544 O 3.636269 23.259223 13.706408 O 0.0 **** 0.0
6545 H 3.121131 23.942732 14.223623 H 0.0 **** 0.0
6546 H 3.051821 22.869895 12.994434 H 0.0 **** 0.0
6547 O 19.476018 41.951431 36.261902 O 0.0 **** 0.0
6548 H 18.71601 42.5644 36.045751 H 0.0 **** 0.0
6549 H 19.383718 41.10712 35.733998 H 0.0 **** 0.0
6550 O 45.555383 16.372967 17.486059 O 0.0 **** 0.0
6551 H 45.318021 15.867811 16.656275 H 0.0 **** 0.0
6552 H 46.11687 15.795408 18.078698 H 0.0 **** 0.0
6553 O 25.857591 24.745783 28.934583 O 0.0 **** 0.0
6554 H 26.533027 24.818124 28.200678 H 0.0 **** 0.0
6555 H 25.005348 25.183175 28.647472 H 0.0 **** 0.0
6556 O 36.195963 35.000171 37.717231 O 0.0 **** 0.0
6557 H 36.200272 34.055345 37.389591 H 0.0 **** 0.0
6558 H 37.136193 35.334395 37.783001 H 0.0 **** 0.0
6559 O 10.463675 38.535412 3.731375 O 0.0 **** 0.0
6560 H 10.73224 38.645815 2.774428 H 0.0 **** 0.0
6561 H 11.222313 38.136489 4.246537 H 0.0 **** 0.0
6562 O 36.762181 25.736178 19.483916 O 0.0 **** 0.0
6563 H 36.352619 26.356127 20.153233 H 0.0 **** 0.0
6564 H 37.451041 25.167824 19.933926 H 0.0 **** 0.0
6565 O 12.008182 36.465563 35.132188 O 0.0 **** 0.0
6566 H 11.75795 37.083635 34.386913 H 0.0 **** 0.0
6567 H 11.214376 36.315763 35.721675 H 0.0 **** 0.0
6568 O 38.164535 16.503603 33.60109 O 0.0 **** 0.0
6569 H 37.555885 17.131537 33.116005 H 0.0 **** 0.0
6570 H 37.733084 15.603666 33.664549 H 0.0 **** 0.0
6571 O 25.91392 5.193217 6.245995 O 0.0 **** 0.0
6572 H 26.673079 4.544476 6.299619 H 0.0 **** 0.0
6573 H 26.266983 6.126068 6.318088 H 0.0 **** 0.0
6574 O 10.365996 5.185203 4.122168 O 0.0 **** 0.0
6575 H 9.444027 5.07823 4.494449 H 0.0 **** 0.0
6576 H 10.595359 6.157399 4.07431 H 0.0 **** 0.0
6577 O 13.763998 12.282489 41.291941 O 0.0 **** 0.0
6578 H 14.141859 13.20739 41.334868 H 0.0 **** 0.0
6579 H 14.339408 11.714376 40.703541 H 0.0 **** 0.0
6580 O 28.93525 46.286904 39.300435 O 0.0 **** 0.0
6581 H 28.857388 47.282756 39.252678 H 0.0 **** 0.0
6582 H 28.085577 45.870295 38.977084 H 0.0 **** 0.0
6583 O 23.724878 43.689924 12.078848 O 0.0 **** 0.0
6584 H 23.80224 42.698904 12.188195 H 0.0 **** 0.0
6585 H 24.613507 44.066734 11.817283 H 0.0 **** 0.0
6586 O 16.102052 44.766124 16.578057 O 0.0 **** 0.0
6587 H 15.102057 44.761043 16.571117 H 0.0 **** 0.0
6588 H 16.440061 43.824983 16.586237 H 0.0 **** 0.0
6589 O 26.414946 35.527141 34.675488 O 0.0 **** 0.0
6590 H 26.291414 36.021678 35.535858 H 0.0 **** 0.0
6591 H 27.031138 34.753153 34.821476 H 0.0 **** 0.0
6592 O 21.256809 33.93493 11.987933 O 0.0 **** 0.0
6593 H 21.679691 33.057004 11.763253 H 0.0 **** 0.0
6594 H 20.293547 33.919211 11.719713 H 0.0 **** 0.0
6595 O 26.31286 22.638662 23.982421 O 0.0 **** 0.0
6596 H 27.263903 22.527662 23.693873 H 0.0 **** 0.0
6597 H 26.116711 22.008191 24.733484 H 0.0 **** 0.0
6598 O 46.497107 4.692323 27.759589 O 0.0 **** 0.0
6599 H 46.604782 4.602394 26.769446 H 0.0 **** 0.0
6600 H 46.429432 5.660441 28.0009 H 0.0 **** 0.0
6601 O 33.424965 44.523686 25.949641 O 0.0 **** 0.0
6602 H 32.876359 44.959631 26.663116 H 0.0 **** 0.0
6603 H 34.395163 44.60823 26.176865 H 0.0 **** 0.0
6604 O 33.948667 9.734699 26.065793 O 0.0 **** 0.0
6605 H 33.767244 8.783585 25.815732 H 0.0 **** 0.0
6606 H 33.13115 10.285401 25.897103 H 0.0 **** 0.0
6607 O 21.5624 42.648568 47.976738 O 0.0 **** 0.0
6608 H 20.791915 43.285651 48.000014 H 0.0 **** 0.0
6609 H 21.42996 41.992403 47.23379 H 0.0 **** 0.0
6610 O 3.805944 1.467637 47.311949 O 0.0 **** 0.0
6611 H 3.062497 2.035502 46.958567 H 0.0 **** 0.0
6612 H 3.423453 0.700317 47.826714 H 0.0 **** 0.0
6613 O 1.629832 26.398937 13.108452 O 0.0 **** 0.0
6614 H 2.550667 26.677534 13.381416 H 0.0 **** 0.0
6615 H 1.433151 26.749793 12.192876 H 0.0 **** 0.0
6616 O 12.644809 13.036924 23.880005 O 0.0 **** 0.0
6617 H 12.468642 12.052671 23.863431 H 0.0 **** 0.0
6618 H 12.32977 13.446344 23.023741 H 0.0 **** 0.0
6619 O 13.194326 6.203825 14.536264 O 0.0 **** 0.0
6620 H 12.440576 5.759453 14.052054 H 0.0 **** 0.0
6621 H 13.85222 5.512434 14.834955 H 0.0 **** 0.0
6622 O 24.64154 35.814732 1.666668 O 0.0 **** 0.0
6623 H 24.917297 36.502115 0.994711 H 0.0 **** 0.0
6624 H 24.604724 34.916476 1.228669 H 0.0 **** 0.0
6625 O 41.754612 0.593571 36.610665 O 0.0 **** 0.0
6626 H 42.046127 1.55017 36.610087 H 0.0 **** 0.0
6627 H 42.559374 -7.7e-05 36.60873 H 0.0 **** 0.0
6628 O 47.712891 40.971768 16.773052 O 0.0 **** 0.0
6629 H 46.819448 40.934667 17.220763 H 0.0 **** 0.0
6630 H 48.000063 41.92522 16.680726 H 0.0 **** 0.0
6631 O 15.737998 23.761607 0.475095 O 0.0 **** 0.0
6632 H 14.934812 24.176374 0.047399 H 0.0 **** 0.0
6633 H 15.792757 22.797206 0.216261 H 0.0 **** 0.0
6634 O 17.762518 39.255421 4.214889 O 0.0 **** 0.0
6635 H 17.988015 40.071014 3.681952 H 0.0 **** 0.0
6636 H 17.921765 38.43952 3.659003 H 0.0 **** 0.0
6637 O 36.771333 13.533762 10.32485 O 0.0 **** 0.0
6638 H 36.381995 14.446522 10.448737 H 0.0 **** 0.0
6639 H 37.756749 13.566259 10.492067 H 0.0 **** 0.0
6640 O 24.637643 4.182842 26.234435 O 0.0 **** 0.0
6641 H 23.656277 4.301565 26.083147 H 0.0 **** 0.0
6642 H 24.87893 3.219571 26.116309 H 0.0 **** 0.0
6643 O 14.764435 1.406496 33.558956 O 0.0 **** 0.0
6644 H 14.511275 2.373949 33.556042 H 0.0 **** 0.0
6645 H 15.749421 1.320201 33.708683 H 0.0 **** 0.0
6646 O 8.646782 25.379979 12.412656 O 0.0 **** 0.0
6647 H 9.3219 25.556945 11.696442 H 0.0 **** 0.0
6648 H 7.906257 26.048659 12.345181 H 0.0 **** 0.0
6649 O 5.467294 11.223927 9.992088 O 0.0 **** 0.0
6650 H 5.950178 10.487218 9.518646 H 0.0 **** 0.0
6651 H 6.108595 11.720999 10.576652 H 0.0 **** 0.0
6652 O 13.366901 16.460439 9.87787 O 0.0 **** 0.0
6653 H 12.723082 15.733758 10.117653 H 0.0 **** 0.0
6654 H 14.288488 16.078883 9.806072 H 0.0 **** 0.0
6655 O 23.566814 39.180085 24.088886 O 0.0 **** 0.0
6656 H 23.051079 40.036673 24.070555 H 0.0 **** 0.0
6657 H 24.546135 39.381145 24.112719 H 0.0 **** 0.0
6658 O 9.358333 3.036434 3.033865 O 0.0 **** 0.0
6659 H 10.355893 2.973545 3.065195 H 0.0 **** 0.0
6660 H 9.091773 3.851159 2.518859 H 0.0 **** 0.0
6661 O 18.628472 16.789068 43.38952 O 0.0 **** 0.0
6662 H 18.380058 16.05014 42.763151 H 0.0 **** 0.0
6663 H 18.754953 17.63575 42.872611 H 0.0 **** 0.0
6664 O 3.14536 41.99176 33.471053 O 0.0 **** 0.0
6665 H 2.378508 42.481886 33.885513 H 0.0 **** 0.0
6666 H 2.828572 41.504085 32.657492 H 0.0 **** 0.0
6667 O 12.540779 21.686572 0.227854 O 0.0 **** 0.0
6668 H 12.810792 21.018212 0.921 H 0.0 **** 0.0
6669 H 11.576034 21.557478 -0.001634 H 0.0 **** 0.0
6670 O 1.18071 21.81271 24.558542 O 0.0 **** 0.0
6671 H 1.977143 22.331616 24.869177 H 0.0 **** 0.0
6672 H 0.348786 22.224781 24.930247 H 0.0 **** 0.0
6673 O 4.967561 10.361465 40.888772 O 0.0 **** 0.0
6674 H 5.581721 10.21697 40.11289 H 0.0 **** 0.0
6675 H 4.784518 11.339237 40.99134 H 0.0 **** 0.0
6676 O 19.615971 12.028724 39.438104 O 0.0 **** 0.0
6677 H 19.809042 12.826752 38.867194 H 0.0 **** 0.0
6678 H 18.682149 12.089309 39.790764 H 0.0 **** 0.0
6679 O 13.351207 29.83665 40.414487 O 0.0 **** 0.0
6680 H 14.22683 29.491029 40.751967 H 0.0 **** 0.0
6681 H 13.47825 30.753745 40.03652 H 0.0 **** 0.0
6682 O 47.567925 32.20086 40.221449 O 0.0 **** 0.0
6683 H 47.800257 33.073164 40.651762 H 0.0 **** 0.0
6684 H 47.84677 32.2182 39.261236 H 0.0 **** 0.0
6685 O 23.785868 19.370804 45.903814 O 0.0 **** 0.0
6686 H 23.014648 19.014206 46.431185 H 0.0 **** 0.0
6687 H 24.611975 18.85518 46.131279 H 0.0 **** 0.0
6688 O 26.320143 40.085457 25.348119 O 0.0 **** 0.0
6689 H 26.307936 39.76723 26.296089 H 0.0 **** 0.0
6690 H 25.847433 40.964486 25.285542 H 0.0 **** 0.0
6691 O 36.038084 44.776055 27.637767 O 0.0 **** 0.0
6692 H 36.03391 43.776281 27.660094 H 0.0 **** 0.0
6693 H 35.526756 45.129045 28.421351 H 0.0 **** 0.0
6694 O 44.56208 40.603472 33.854353 O 0.0 **** 0.0
6695 H 44.965964 41.397207 34.309243 H 0.0 **** 0.0
6696 H 44.99808 39.768813 34.19097 H 0.0 **** 0.0
6697 O 27.166492 22.19262 38.273438 O 0.0 **** 0.0
6698 H 27.657246 22.488481 39.093005 H 0.0 **** 0.0
6699 H 26.999971 21.207748 38.32203 H 0.0 **** 0.0
6700 O 15.102944 33.140253 16.783152 O 0.0 **** 0.0
6701 H 14.524909 33.230345 17.594214 H 0.0 **** 0.0
6702 H 15.811831 33.845439 16.799116 H 0.0 **** 0.0
6703 O 12.238675 46.094222 16.990272 O 0.0 **** 0.0
6704 H 11.459464 45.468204 16.95873 H 0.0 **** 0.0
6705 H 13.078351 45.573646 17.145216 H 0.0 **** 0.0
6706 O 43.611739 11.203314 38.050924 O 0.0 **** 0.0
6707 H 44.19997 11.769131 38.628764 H 0.0 **** 0.0
6708 H 42.873584 11.764364 37.676206 H 0.0 **** 0.0
6709 O 33.82869 2.381246 24.547985 O 0.0 **** 0.0
6710 H 34.628197 1.797106 24.688098 H 0.0 **** 0.0
6711 H 34.118138 3.337474 24.504269 H 0.0 **** 0.0
6712 O 6.46773 14.470365 17.791514 O 0.0 **** 0.0
6713 H 7.358403 14.019682 17.851917 H 0.0 **** 0.0
6714 H 5.752253 13.780806 17.678976 H 0.0 **** 0.0
6715 O 41.582861 6.259202 31.269612 O 0.0 **** 0.0
6716 H 40.903557 6.017538 31.962582 H 0.0 **** 0.0
6717 H 41.877991 7.204662 31.407691 H 0.0 **** 0.0
6718 O 33.891643 13.729283 44.666577 O 0.0 **** 0.0
6719 H 33.795718 14.346544 45.447506 H 0.0 **** 0.0
6720 H 34.067665 12.80125 44.994957 H 0.0 **** 0.0
6721 O 24.056706 21.311818 33.644758 O 0.0 **** 0.0
6722 H 24.816659 20.759787 33.987971 H 0.0 **** 0.0
6723 H 23.211907 21.038671 34.10494 H 0.0 **** 0.0
6724 O 1.321762 1.935839 0.750288 O 0.0 **** 0.0
6725 H 1.37203 2.786676 1.273368 H 0.0 **** 0.0
6726 H 1.984135 1.965246 0.001649 H 0.0 **** 0.0
6727 O 5.427614 10.304498 19.027634 O 0.0 **** 0.0
6728 H 5.084391 9.36526 19.037294 H 0.0 **** 0.0
6729 H 5.159994 10.765836 19.873571 H 0.0 **** 0.0
6730 O 0.058308 41.263911 16.890501 O 0.0 **** 0.0
6731 H 0.061844 41.738109 17.770948 H 0.0 **** 0.0
6732 H -0.000714 40.277419 17.043514 H 0.0 **** 0.0
6733 O 0.791917 34.180601 46.275602 O 0.0 **** 0.0
6734 H 1.387393 33.754108 45.594739 H 0.0 **** 0.0
6735 H -0.005971 33.598379 46.43198 H 0.0 **** 0.0
6736 O 25.745153 9.734004 10.516455 O 0.0 **** 0.0
6737 H 26.404297 9.572815 11.251036 H 0.0 **** 0.0
6738 H 25.638134 8.899626 9.975694 H 0.0 **** 0.0
6739 O 12.998805 39.486268 4.092187 O 0.0 **** 0.0
6740 H 13.851179 39.917873 3.796825 H 0.0 **** 0.0
6741 H 12.22197 40.024497 3.765232 H 0.0 **** 0.0
6742 O 45.373225 16.443935 44.695054 O 0.0 **** 0.0
6743 H 44.463297 16.809774 44.890646 H 0.0 **** 0.0
6744 H 45.969188 17.183076 44.381112 H 0.0 **** 0.0
6745 O 42.709624 35.215518 12.421841 O 0.0 **** 0.0
6746 H 41.979025 34.646694 12.044046 H 0.0 **** 0.0
6747 H 43.073043 35.810703 11.705082 H 0.0 **** 0.0
6748 O 42.314034 13.298453 17.599355 O 0.0 **** 0.0
6749 H 42.349992 12.570747 16.914362 H 0.0 **** 0.0
6750 H 41.413686 13.733115 17.576874 H 0.0 **** 0.0
6751 O 35.965368 11.647068 20.506321 O 0.0 **** 0.0
6752 H 35.043229 11.262009 20.54444 H 0.0 **** 0.0
6753 H 36.373423 11.625747 21.419064 H 0.0 **** 0.0
6754 O 31.603481 5.857822 43.205084 O 0.0 **** 0.0
6755 H 30.739534 5.562239 42.797298 H 0.0 **** 0.0
6756 H 31.545675 5.781064 44.200488 H 0.0 **** 0.0
6757 O 14.087915 42.184882 36.843012 O 0.0 **** 0.0
6758 H 14.660598 41.365077 36.847156 H 0.0 **** 0.0
6759 H 13.153554 41.937416 36.586512 H 0.0 **** 0.0
6760 O 24.636617 42.256551 26.59187 O 0.0 **** 0.0
6761 H 23.906629 41.882071 27.163662 H 0.0 **** 0.0
6762 H 25.328083 42.685857 27.172932 H 0.0 **** 0.0
6763 O 23.374308 33.250635 31.707665 O 0.0 **** 0.0
6764 H 23.464066 32.502327 32.364964 H 0.0 **** 0.0
6765 H 23.376255 34.124051 32.1947 H 0.0 **** 0.0
6766 O 7.334919 22.976915 23.088063 O 0.0 **** 0.0
6767 H 8.140832 23.320105 22.605581 H 0.0 **** 0.0
6768 H 6.556259 23.577159 22.905148 H 0.0 **** 0.0
6769 O 31.497663 11.437089 36.915924 O 0.0 **** 0.0
6770 H 31.31575 10.785867 37.652729 H 0.0 **** 0.0
6771 H 30.669751 11.56125 36.368924 H 0.0 **** 0.0
6772 O 12.992221 18.453341 12.480444 O 0.0 **** 0.0
6773 H 13.622384 19.080361 12.022401 H 0.0 **** 0.0
6774 H 13.267651 18.342599 13.435398 H 0.0 **** 0.0
6775 O 3.209075 21.179423 15.235301 O 0.0 **** 0.0
6776 H 3.893372 21.205258 14.506512 H 0.0 **** 0.0
6777 H 3.004864 22.111727 15.533915 H 0.0 **** 0.0
6778 O 38.334037 0.62542 5.163807 O 0.0 **** 0.0
6779 H 37.512719 0.103969 4.932317 H 0.0 **** 0.0
6780 H 39.108441 0.000579 5.263483 H 0.0 **** 0.0
6781 O 6.692345 29.995572 22.951243 O 0.0 **** 0.0
6782 H 7.110657 30.894374 22.819974 H 0.0 **** 0.0
6783 H 5.706707 30.102604 23.082105 H 0.0 **** 0.0
6784 O 31.017112 17.524862 27.460113 O 0.0 **** 0.0
6785 H 30.350684 18.161353 27.848464 H 0.0 **** 0.0
6786 H 30.638651 16.599258 27.469484 H 0.0 **** 0.0
6787 O 14.872288 26.454093 32.981078 O 0.0 **** 0.0
6788 H 14.897602 27.281745 32.420351 H 0.0 **** 0.0
6789 H 15.796135 26.236613 33.296151 H 0.0 **** 0.0
6790 O 23.294709 25.498283 13.696838 O 0.0 **** 0.0
6791 H 24.187813 25.947225 13.726505 H 0.0 **** 0.0
6792 H 23.420765 24.512505 13.585422 H 0.0 **** 0.0
6793 O 31.872986 32.390532 26.137784 O 0.0 **** 0.0
6794 H 31.085638 32.116174 26.689938 H 0.0 **** 0.0
6795 H 31.985453 33.382965 26.187681 H 0.0 **** 0.0
6796 O 19.072849 25.20909 14.818612 O 0.0 **** 0.0
6797 H 20.018393 25.505165 14.954072 H 0.0 **** 0.0
6798 H 18.532477 25.43879 15.628118 H 0.0 **** 0.0
6799 O 35.302004 7.227757 35.322114 O 0.0 **** 0.0
6800 H 36.01782 7.138362 36.014703 H 0.0 **** 0.0
6801 H 35.269614 6.396517 34.767088 H 0.0 **** 0.0
6802 O 37.81021 42.362051 7.79962 O 0.0 **** 0.0
6803 H 37.861658 41.373379 7.940843 H 0.0 **** 0.0
6804 H 37.902703 42.564708 6.824716 H 0.0 **** 0.0
6805 O 36.598264 28.398273 22.440368 O 0.0 **** 0.0
6806 H 36.252293 27.503295 22.722113 H 0.0 **** 0.0
6807 H 37.597983 28.37914 22.424284 H 0.0 **** 0.0
6808 O 46.302388 3.845409 44.547484 O 0.0 **** 0.0
6809 H 45.41736 3.498964 44.858552 H 0.0 **** 0.0
6810 H 46.390906 4.80876 44.800828 H 0.0 **** 0.0
6811 O 2.654932 0.88859 17.813004 O 0.0 **** 0.0
6812 H 2.674583 1.49139 18.610694 H 0.0 **** 0.0
6813 H 1.970884 1.218779 17.16253 H 0.0 **** 0.0
6814 O -0.002996 8.625374 34.673547 O 0.0 **** 0.0
6815 H 0.267701 9.573246 34.841845 H 0.0 **** 0.0
6816 H 0.064007 8.10362 35.524044 H 0.0 **** 0.0
6817 O 38.619121 17.514865 21.054882 O 0.0 **** 0.0
6818 H 38.428706 17.891741 20.148367 H 0.0 **** 0.0
6819 H 37.907865 16.85514 21.297659 H 0.0 **** 0.0
6820 O 39.818563 44.186334 47.987141 O 0.0 **** 0.0
6821 H 39.857065 45.185374 48.009519 H 0.0 **** 0.0
6822 H 38.863572 43.88976 47.977185 H 0.0 **** 0.0
6823 O 16.262703 42.948482 4.499158 O 0.0 **** 0.0
6824 H 17.041603 42.321333 4.507062 H 0.0 **** 0.0
6825 H 15.468111 42.488058 4.103311 H 0.0 **** 0.0
6826 O 38.119122 18.55523 35.403008 O 0.0 **** 0.0
6827 H 38.988563 18.061178 35.396132 H 0.0 **** 0.0
6828 H 37.363586 17.900114 35.410088 H 0.0 **** 0.0
6829 O 10.14352 12.710451 30.468805 O 0.0 **** 0.0
6830 H 9.145988 12.715678 30.539268 H 0.0 **** 0.0
6831 H 10.529647 13.321452 31.159925 H 0.0 **** 0.0
6832 O 9.589526 18.234291 28.430935 O 0.0 **** 0.0
6833 H 9.436637 18.460197 29.393044 H 0.0 **** 0.0
6834 H 10.530635 18.461762 28.180669 H 0.0 **** 0.0
6835 O 35.12316 0.654455 43.76797 O 0.0 **** 0.0
6836 H 35.193461 1.478625 43.205951 H 0.0 **** 0.0
6837 H 34.459399 0.027993 43.359277 H 0.0 **** 0.0
6838 O 14.937491 35.619071 32.243483 O 0.0 **** 0.0
6839 H 15.323377 35.090815 31.48711 H 0.0 **** 0.0
6840 H 15.600536 35.664398 32.990731 H 0.0 **** 0.0
6841 O 22.277974 6.528853 33.047819 O 0.0 **** 0.0
6842 H 22.659048 6.658748 33.963227 H 0.0 **** 0.0
6843 H 21.280104 6.494724 33.103984 H 0.0 **** 0.0
6844 O 26.597708 7.907001 29.234139 O 0.0 **** 0.0
6845 H 27.368737 7.271221 29.271028 H 0.0 **** 0.0
6846 H 26.309046 8.135097 30.164036 H 0.0 **** 0.0
6847 O 5.009254 15.05675 37.327349 O 0.0 **** 0.0
6848 H 5.019192 15.910177 37.848527 H 0.0 **** 0.0
6849 H 5.574161 14.375381 37.792838 H 0.0 **** 0.0
6850 O 17.236318 41.867533 11.120392 O 0.0 **** 0.0
6851 H 16.694118 42.695989 10.979883 H 0.0 **** 0.0
6852 H 16.656655 41.06344 10.988153 H 0.0 **** 0.0
6853 O 8.595179 41.382347 36.913474 O 0.0 **** 0.0
6854 H 8.164545 40.488441 36.788778 H 0.0 **** 0.0
6855 H 9.588823 41.284295 36.857615 H 0.0 **** 0.0
6856 O 36.731447 38.690766 12.544266 O 0.0 **** 0.0
6857 H 35.760447 38.452154 12.561155 H 0.0 **** 0.0
6858 H 37.278627 37.85624 12.479289 H 0.0 **** 0.0
6859 O 20.697873 24.539097 37.334161 O 0.0 **** 0.0
6860 H 21.217816 23.711935 37.547529 H 0.0 **** 0.0
6861 H 19.83171 24.28633 36.902961 H 0.0 **** 0.0
6862 O 43.031907 32.910658 12.890731 O 0.0 **** 0.0
6863 H 43.929474 33.249455 12.608501 H 0.0 **** 0.0
6864 H 43.056972 31.912921 12.953616 H 0.0 **** 0.0
6865 O 25.277846 12.468172 23.494068 O 0.0 **** 0.0
6866 H 26.276001 12.48592 23.552662 H 0.0 **** 0.0
6867 H 24.916349 13.380192 23.68798 H 0.0 **** 0.0
6868 O 23.954624 15.465348 37.59589 O 0.0 **** 0.0
6869 H 23.164152 15.07531 38.068212 H 0.0 **** 0.0
6870 H 23.86327 16.460521 37.55918 H 0.0 **** 0.0
6871 O 8.702202 16.228389 37.779534 O 0.0 **** 0.0
6872 H 8.103416 15.58627 38.258284 H 0.0 **** 0.0
6873 H 8.147486 16.86702 37.246145 H 0.0 **** 0.0
6874 O 30.3977 14.016753 21.247765 O 0.0 **** 0.0
6875 H 31.045472 14.192787 20.506505 H 0.0 **** 0.0
6876 H 30.314336 13.030449 21.390302 H 0.0 **** 0.0
6877 O 4.298203 0.782388 42.670977 O 0.0 **** 0.0
6878 H 3.364153 1.040149 42.423644 H 0.0 **** 0.0
6879 H 4.440008 0.940884 43.648132 H 0.0 **** 0.0
6880 O 28.166933 40.249865 41.888297 O 0.0 **** 0.0
6881 H 28.74991 40.229597 41.076023 H 0.0 **** 0.0
6882 H 27.253782 39.917978 41.651508 H 0.0 **** 0.0
6883 O 32.762639 5.883499 15.316578 O 0.0 **** 0.0
6884 H 33.706781 6.078855 15.05107 H 0.0 **** 0.0
6885 H 32.330161 6.721153 15.650287 H 0.0 **** 0.0
6886 O 26.052912 0.388144 23.078636 O 0.0 **** 0.0
6887 H 26.280026 1.361646 23.050774 H 0.0 **** 0.0
6888 H 25.074114 0.269358 22.911581 H 0.0 **** 0.0
6889 O 37.978024 28.524213 11.400542 O 0.0 **** 0.0
6890 H 38.844614 28.877475 11.047993 H 0.0 **** 0.0
6891 H 37.919824 27.542497 11.21913 H 0.0 **** 0.0
6892 O 43.126061 11.516938 9.545628 O 0.0 **** 0.0
6893 H 42.353644 11.833864 8.99518 H 0.0 **** 0.0
6894 H 43.970084 11.931684 9.205518 H 0.0 **** 0.0
6895 O 1.186593 5.804574 15.056727 O 0.0 **** 0.0
6896 H 1.680436 4.937072 15.116927 H 0.0 **** 0.0
6897 H 0.327272 5.734736 15.563434 H 0.0 **** 0.0
6898 O 32.108542 -0.05497 8.7469 O 0.0 **** 0.0
6899 H 32.922061 0.526512 8.758219 H 0.0 **** 0.0
6900 H 31.289604 0.518184 8.716948 H 0.0 **** 0.0
6901 O 14.634822 25.352101 12.199339 O 0.0 **** 0.0
6902 H 13.635172 25.328523 12.184927 H 0.0 **** 0.0
6903 H 14.945021 26.301122 12.255905 H 0.0 **** 0.0
6904 O 42.258057 12.531521 34.483227 O 0.0 **** 0.0
6905 H 42.37859 13.437889 34.078217 H 0.0 **** 0.0
6906 H 41.299461 12.257103 34.406724 H 0.0 **** 0.0
6907 O 17.713786 44.148719 28.403019 O 0.0 **** 0.0
6908 H 17.459226 45.021085 27.985599 H 0.0 **** 0.0
6909 H 17.175558 43.412925 27.991947 H 0.0 **** 0.0
6910 O 18.947192 46.021855 23.330192 O 0.0 **** 0.0
6911 H 19.425618 45.153434 23.460642 H 0.0 **** 0.0
6912 H 18.359649 46.200507 24.119456 H 0.0 **** 0.0
6913 O 24.552987 41.274698 8.853921 O 0.0 **** 0.0
6914 H 24.333711 41.763531 9.698327 H 0.0 **** 0.0
6915 H 25.545944 41.207887 8.755756 H 0.0 **** 0.0
6916 O 38.178154 16.114838 44.817735 O 0.0 **** 0.0
6917 H 39.048685 16.054728 44.329241 H 0.0 **** 0.0
6918 H 38.011739 15.259646 45.308668 H 0.0 **** 0.0
6919 O 26.754065 16.28738 12.579393 O 0.0 **** 0.0
6920 H 25.84075 16.693878 12.553388 H 0.0 **** 0.0
6921 H 26.68228 15.298073 12.452184 H 0.0 **** 0.0
6922 O 47.816942 30.68082 42.47683 O 0.0 **** 0.0
6923 H 48.027192 31.633158 42.255672 H 0.0 **** 0.0
6924 H 47.169764 30.318023 41.806307 H 0.0 **** 0.0
6925 O 16.244731 7.766263 29.208553 O 0.0 **** 0.0
6926 H 15.721492 7.610835 30.046483 H 0.0 **** 0.0
6927 H 16.564928 6.890076 28.848229 H 0.0 **** 0.0
6928 O 20.355676 25.250422 45.158496 O 0.0 **** 0.0
6929 H 19.642726 24.566445 45.313227 H 0.0 **** 0.0
6930 H 20.231832 25.662573 44.255802 H 0.0 **** 0.0
6931 O 30.359571 23.753279 31.083806 O 0.0 **** 0.0
6932 H 31.13614 24.171549 31.555031 H 0.0 **** 0.0
6933 H 29.615696 24.417835 31.012555 H 0.0 **** 0.0
6934 O 47.368385 39.189423 27.972547 O 0.0 **** 0.0
6935 H 46.413226 39.352648 27.725381 H 0.0 **** 0.0
6936 H 47.72152 38.416254 27.4457 H 0.0 **** 0.0
6937 O 9.041474 30.618602 43.197902 O 0.0 **** 0.0
6938 H 9.536284 31.483064 43.108836 H 0.0 **** 0.0
6939 H 9.478166 30.055387 43.899437 H 0.0 **** 0.0
6940 O 30.166671 24.958833 15.379272 O 0.0 **** 0.0
6941 H 29.617646 25.521184 15.997653 H 0.0 **** 0.0
6942 H 29.565536 24.355062 14.855667 H 0.0 **** 0.0
6943 O 18.641239 8.224344 47.370911 O 0.0 **** 0.0
6944 H 19.031958 9.105454 47.104366 H 0.0 **** 0.0
6945 H 17.66329 8.216574 47.162063 H 0.0 **** 0.0
6946 O 12.866166 3.453367 14.40061 O 0.0 **** 0.0
6947 H 12.042946 2.927187 14.187288 H 0.0 **** 0.0
6948 H 13.339859 3.689634 13.552166 H 0.0 **** 0.0
6949 O 11.383744 27.670116 2.733302 O 0.0 **** 0.0
6950 H 12.363395 27.789366 2.894936 H 0.0 **** 0.0
6951 H 11.24661 27.096851 1.92545 H 0.0 **** 0.0
6952 O 10.523298 13.447814 0.147424 O 0.0 **** 0.0
6953 H 10.07296 12.56941 -0.012783 H 0.0 **** 0.0
6954 H 10.380986 13.726987 1.097094 H 0.0 **** 0.0
6955 O 29.544353 28.978701 21.351237 O 0.0 **** 0.0
6956 H 29.990517 28.086907 21.275707 H 0.0 **** 0.0
6957 H 28.848517 29.064689 20.638158 H 0.0 **** 0.0
6958 O 33.672907 0.000273 15.32727 O 0.0 **** 0.0
6959 H 34.326548 0.736084 15.15007 H 0.0 **** 0.0
6960 H 32.970408 -2.3e-05 14.615542 H 0.0 **** 0.0
6961 O 48.001396 29.150783 19.220803 O 0.0 **** 0.0
6962 H 47.934145 28.902016 18.254545 H 0.0 **** 0.0
6963 H 47.223996 29.727827 19.471268 H 0.0 **** 0.0
6964 O 4.109315 40.437428 20.857348 O 0.0 **** 0.0
6965 H 4.841247 40.040227 21.411036 H 0.0 **** 0.0
6966 H 3.224229 40.217228 21.267467 H 0.0 **** 0.0
6967 O 44.17258 20.054809 16.064561 O 0.0 **** 0.0
6968 H 45.120343 19.770509 16.209415 H 0.0 **** 0.0
6969 H 44.127075 20.677292 15.283211 H 0.0 **** 0.0
6970 O 2.192729 9.219909 36.737703 O 0.0 **** 0.0
6971 H 1.234717 9.205929 37.024202 H 0.0 **** 0.0
6972 H 2.251308 9.517658 35.784824 H 0.0 **** 0.0
6973 O 5.436869 29.415039 -0.001279 O 0.0 **** 0.0
6974 H 6.203293 30.037538 0.157318 H 0.0 **** 0.0
6975 H 4.590059 29.841093 0.317237 H 0.0 **** 0.0
6976 O 20.072382 24.951774 30.708115 O 0.0 **** 0.0
6977 H 20.99358 25.330026 30.616567 H 0.0 **** 0.0
6978 H 19.528027 25.202646 29.907613 H 0.0 **** 0.0
6979 O 37.585761 30.938492 32.25176 O 0.0 **** 0.0
6980 H 38.159865 31.605918 32.726112 H 0.0 **** 0.0
6981 H 37.376966 30.179976 32.86911 H 0.0 **** 0.0
6982 O 25.370974 19.590038 15.85205 O 0.0 **** 0.0
6983 H 24.492238 19.382101 16.281758 H 0.0 **** 0.0
6984 H 26.053996 19.769574 16.560083 H 0.0 **** 0.0
6985 O 21.503089 20.205722 35.227953 O 0.0 **** 0.0
6986 H 20.720272 19.777561 34.776357 H 0.0 **** 0.0
6987 H 22.224045 19.525597 35.361053 H 0.0 **** 0.0
6988 O 25.503413 36.22475 42.18289 O 0.0 **** 0.0
6989 H 26.448453 36.162878 41.861745 H 0.0 **** 0.0
6990 H 25.122084 37.113209 41.927366 H 0.0 **** 0.0
6991 O 31.292361 40.675595 11.701035 O 0.0 **** 0.0
6992 H 31.37162 39.985831 12.420761 H 0.0 **** 0.0
6993 H 30.849341 41.49275 12.069892 H 0.0 **** 0.0
6994 O 15.982946 36.069809 10.6691 O 0.0 **** 0.0
6995 H 16.918111 35.759032 10.498963 H 0.0 **** 0.0
6996 H 15.360273 35.618495 10.029838 H 0.0 **** 0.0
6997 O 8.683258 7.902116 25.179484 O 0.0 **** 0.0
6998 H 8.880145 7.804195 24.203928 H 0.0 **** 0.0
6999 H 9.499369 7.670646 25.709058 H 0.0 **** 0.0
7000 O 38.727449 18.155745 6.347586 O 0.0 **** 0.0
7001 H 38.924437 19.136119 6.336396 H 0.0 **** 0.0
7002 H 37.737635 18.014457 6.328384 H 0.0 **** 0.0
7003 O 12.654958 2.084791 1.293053 O 0.0 **** 0.0
7004 H 13.042732 2.523467 0.482338 H 0.0 **** 0.0
7005 H 13.167765 1.251158 1.498353 H 0.0 **** 0.0
7006 O 12.8858 26.775666 31.570254 O 0.0 **** 0.0
7007 H 13.068136 25.821751 31.808715 H 0.0 **** 0.0
7008 H 13.247383 26.965996 30.657514 H 0.0 **** 0.0
7009 O 23.181677 43.635029 44.522211 O 0.0 **** 0.0
7010 H 22.398767 43.477694 43.920246 H 0.0 **** 0.0
7011 H 22.925002 43.422826 45.465159 H 0.0 **** 0.0
7012 O 23.628588 22.414254 -0.000556 O 0.0 **** 0.0
7013 H 23.745375 23.407443 -0.000779 H 0.0 **** 0.0
7014 H 24.526081 21.973153 -0.000384 H 0.0 **** 0.0
7015 O 39.221283 31.238099 37.435781 O 0.0 **** 0.0
7016 H 39.865646 31.920877 37.09129 H 0.0 **** 0.0
7017 H 38.402242 31.23344 36.86201 H 0.0 **** 0.0
7018 O 29.280758 38.415604 8.026102 O 0.0 **** 0.0
7019 H 28.958199 37.50275 7.77567 H 0.0 **** 0.0
7020 H 29.380607 38.971775 7.201016 H 0.0 **** 0.0
7021 O 42.910511 14.882276 4.363761 O 0.0 **** 0.0
7022 H 42.033691 15.337985 4.517311 H 0.0 **** 0.0
7023 H 42.867104 14.352911 3.516441 H 0.0 **** 0.0
7024 O 5.797884 39.038919 28.63598 O 0.0 **** 0.0
7025 H 6.6871 38.588891 28.718643 H 0.0 **** 0.0
7026 H 5.10606 38.364913 28.376831 H 0.0 **** 0.0
7027 O 1.981233 6.484962 24.590296 O 0.0 **** 0.0
7028 H 2.547263 6.982335 23.932806 H 0.0 **** 0.0
7029 H 1.193809 7.046692 24.844238 H 0.0 **** 0.0
7030 O 34.580833 33.175542 44.719176 O 0.0 **** 0.0
7031 H 35.304196 32.512447 44.911823 H 0.0 **** 0.0
7032 H 34.647567 33.474374 43.767174 H 0.0 **** 0.0
7033 O 42.071096 19.022536 -0.01066 O 0.0 **** 0.0
7034 H 41.085901 18.857772 0.037375 H 0.0 **** 0.0
7035 H 42.255444 19.99135 0.15511 H 0.0 **** 0.0
7036 O 5.61275 8.948824 0.70948 O 0.0 **** 0.0
7037 H 5.155254 8.899915 1.597381 H 0.0 **** 0.0
7038 H 4.985639 9.333635 0.032195 H 0.0 **** 0.0
7039 O 7.319928 41.49945 3.513577 O 0.0 **** 0.0
7040 H 6.666577 40.799062 3.80107 H 0.0 **** 0.0
7041 H 7.062466 41.845056 2.611173 H 0.0 **** 0.0
7042 O 40.681789 13.129025 15.592753 O 0.0 **** 0.0
7043 H 39.785971 12.684538 15.590792 H 0.0 **** 0.0
7044 H 40.561269 14.121754 15.58744 H 0.0 **** 0.0
7045 O 2.146923 19.156411 42.014841 O 0.0 **** 0.0
7046 H 2.376565 19.262564 42.982343 H 0.0 **** 0.0
7047 H 1.798415 20.023164 41.657986 H 0.0 **** 0.0
7048 O 45.060763 13.98893 4.977065 O 0.0 **** 0.0
7049 H 45.323785 13.468265 4.16479 H 0.0 **** 0.0
7050 H 45.782154 13.918582 5.666056 H 0.0 **** 0.0
7051 O 33.084732 34.647399 40.130986 O 0.0 **** 0.0
7052 H 32.831282 33.840586 40.664727 H 0.0 **** 0.0
7053 H 32.388168 34.818272 39.434089 H 0.0 **** 0.0
7054 O 32.436454 16.828823 3.094912 O 0.0 **** 0.0
7055 H 33.349 16.524267 3.367986 H 0.0 **** 0.0
7056 H 32.400825 17.828134 3.108016 H 0.0 **** 0.0
7057 O 47.804515 21.832314 3.80895 O 0.0 **** 0.0
7058 H 48.000105 21.127257 4.490642 H 0.0 **** 0.0
7059 H 46.894244 22.212085 3.974009 H 0.0 **** 0.0
7060 O 0.33117 39.739609 25.71847 O 0.0 **** 0.0
7061 H 0.002114 40.357818 26.432334 H 0.0 **** 0.0
7062 H -0.014607 40.042136 24.830225 H 0.0 **** 0.0
7063 O 9.334298 4.532406 34.675903 O 0.0 **** 0.0
7064 H 10.247782 4.921938 34.793693 H 0.0 **** 0.0
7065 H 8.966417 4.808077 33.787797 H 0.0 **** 0.0
7066 O 42.043597 35.278634 43.053594 O 0.0 **** 0.0
7067 H 42.423756 35.349588 42.131364 H 0.0 **** 0.0
7068 H 42.107644 34.331649 43.368523 H 0.0 **** 0.0
7069 O 23.764845 47.424216 0.866602 O 0.0 **** 0.0
7070 H 23.301252 47.572996 -0.006902 H 0.0 **** 0.0
7071 H 24.577449 48.005006 0.915799 H 0.0 **** 0.0
7072 O 0.96261 22.7659 16.019696 O 0.0 **** 0.0
7073 H 1.488378 23.379477 16.608893 H 0.0 **** 0.0
7074 H -0.002955 23.024852 16.045993 H 0.0 **** 0.0
7075 O 12.714031 35.281265 37.513478 O 0.0 **** 0.0
7076 H 13.648491 34.926526 37.54523 H 0.0 **** 0.0
7077 H 12.738212 36.273623 37.392221 H 0.0 **** 0.0
7078 O 38.626068 41.441877 28.331053 O 0.0 **** 0.0
7079 H 39.611839 41.579563 28.427801 H 0.0 **** 0.0
7080 H 38.140417 42.224161 28.721232 H 0.0 **** 0.0
7081 O 15.575929 11.599371 3.496341 O 0.0 **** 0.0
7082 H 14.595005 11.434219 3.599183 H 0.0 **** 0.0
7083 H 15.746688 12.584247 3.465945 H 0.0 **** 0.0
7084 O 21.098931 24.930246 9.798238 O 0.0 **** 0.0
7085 H 20.685656 25.214501 8.933099 H 0.0 **** 0.0
7086 H 20.383765 24.611739 10.420455 H 0.0 **** 0.0
7087 O 2.329418 13.167332 26.487314 O 0.0 **** 0.0
7088 H 3.062641 12.629205 26.071541 H 0.0 **** 0.0
7089 H 1.634021 12.552128 26.858811 H 0.0 **** 0.0
7090 O 15.468414 13.405701 45.525037 O 0.0 **** 0.0
7091 H 15.12723 13.149469 44.620603 H 0.0 **** 0.0
7092 H 16.342267 13.882346 45.42885 H 0.0 **** 0.0
7093 O 8.06381 18.54743 23.018104 O 0.0 **** 0.0
7094 H 8.062103 17.549469 23.082403 H 0.0 **** 0.0
7095 H 8.950736 18.85783 22.675939 H 0.0 **** 0.0
7096 O 35.490322 22.328851 25.24554 O 0.0 **** 0.0
7097 H 35.904144 21.477901 24.921969 H 0.0 **** 0.0
7098 H 35.005105 22.771333 24.491327 H 0.0 **** 0.0
7099 O 1.852691 39.72071 33.970627 O 0.0 **** 0.0
7100 H 1.310717 40.561028 33.98449 H 0.0 **** 0.0
7101 H 2.800383 39.931364 34.21056 H 0.0 **** 0.0
7102 O 45.755396 46.607867 43.315717 O 0.0 **** 0.0
7103 H 46.754285 46.636002 43.277093 H 0.0 **** 0.0
7104 H 45.403236 47.524544 43.504793 H 0.0 **** 0.0
7105 O 7.416657 10.529843 2.241661 O 0.0 **** 0.0
7106 H 6.721664 10.711972 2.937274 H 0.0 **** 0.0
7107 H 7.332065 9.584904 1.925435 H 0.0 **** 0.0
7108 O 20.792034 16.884016 28.766677 O 0.0 **** 0.0
7109 H 19.968878 17.306688 28.387435 H 0.0 **** 0.0
7110 H 20.553158 16.009993 29.189861 H 0.0 **** 0.0
7111 O 33.320648 46.744298 45.110108 O 0.0 **** 0.0
7112 H 32.339246 46.717679 45.300384 H 0.0 **** 0.0
7113 H 33.687207 45.813912 45.11901 H 0.0 **** 0.0
7114 O 16.318932 41.065828 35.436369 O 0.0 **** 0.0
7115 H 16.35921 42.052464 35.594448 H 0.0 **** 0.0
7116 H 17.246695 40.692991 35.418684 H 0.0 **** 0.0
7117 O 3.611761 37.996097 34.861773 O 0.0 **** 0.0
7118 H 4.32208 38.028759 35.56494 H 0.0 **** 0.0
7119 H 2.784067 37.58425 35.243044 H 0.0 **** 0.0
7120 O 44.112698 22.729414 18.403858 O 0.0 **** 0.0
7121 H 44.952823 22.986774 17.926343 H 0.0 **** 0.0
7122 H 44.341356 22.356694 19.303223 H 0.0 **** 0.0
7123 O 31.597724 45.875058 47.468754 O 0.0 **** 0.0
7124 H 30.747412 45.509485 47.847422 H 0.0 **** 0.0
7125 H 32.361783 45.288957 47.738499 H 0.0 **** 0.0
7126 O 20.24122 0.185087 31.264118 O 0.0 **** 0.0
7127 H 20.689489 0.947732 31.730476 H 0.0 **** 0.0
7128 H 20.073 0.430745 30.309436 H 0.0 **** 0.0
7129 O 2.683883 22.646689 26.940832 O 0.0 **** 0.0
7130 H 3.613538 22.572383 26.579882 H 0.0 **** 0.0
7131 H 2.382973 21.752786 27.273177 H 0.0 **** 0.0
7132 O 5.121812 29.567648 13.930392 O 0.0 **** 0.0
7133 H 4.872901 30.487243 14.234449 H 0.0 **** 0.0
7134 H 5.628248 29.102274 14.656348 H 0.0 **** 0.0
7135 O 47.228903 27.869224 40.632832 O 0.0 **** 0.0
7136 H 46.540798 28.594872 40.629816 H 0.0 **** 0.0
7137 H 46.77564 26.980406 40.700786 H 0.0 **** 0.0
7138 O 36.998133 43.74736 18.207952 O 0.0 **** 0.0
7139 H 37.693744 44.413344 17.938409 H 0.0 **** 0.0
7140 H 37.393696 43.095744 18.855245 H 0.0 **** 0.0
7141 O 12.786557 31.743644 37.510724 O 0.0 **** 0.0
7142 H 13.417083 32.518532 37.555979 H 0.0 **** 0.0
7143 H 13.242186 30.922692 37.854969 H 0.0 **** 0.0
7144 O 22.035689 3.791541 14.455251 O 0.0 **** 0.0
7145 H 22.894743 4.056983 14.017496 H 0.0 **** 0.0
7146 H 21.9428 2.796135 14.430721 H 0.0 **** 0.0
7147 O 18.488959 35.334259 24.608706 O 0.0 **** 0.0
7148 H 17.61993 34.839434 24.609424 H 0.0 **** 0.0
7149 H 19.221786 34.721202 24.903984 H 0.0 **** 0.0
7150 O 22.308652 0.427383 3.331964 O 0.0 **** 0.0
7151 H 23.306564 0.456767 3.273896 H 0.0 **** 0.0
7152 H 21.952737 1.35724 3.425522 H 0.0 **** 0.0
7153 O 9.967193 32.331472 31.534571 O 0.0 **** 0.0
7154 H 9.989927 31.369041 31.805258 H 0.0 **** 0.0
7155 H 10.902156 32.669481 31.426598 H 0.0 **** 0.0
7156 O 21.947464 35.731176 10.921449 O 0.0 **** 0.0
7157 H 22.908594 35.911421 11.130742 H 0.0 **** 0.0
7158 H 21.412413 36.562899 11.069844 H 0.0 **** 0.0
7159 O 39.650649 32.670381 26.170626 O 0.0 **** 0.0
7160 H 40.110388 33.291237 25.535613 H 0.0 **** 0.0
7161 H 39.356057 31.85014 25.680234 H 0.0 **** 0.0
7162 O 47.342553 47.867149 1.671831 O 0.0 **** 0.0
7163 H 46.423137 47.499916 1.530843 H 0.0 **** 0.0
7164 H 48.000042 47.114533 1.708436 H 0.0 **** 0.0
7165 O 9.575299 19.013294 35.338765 O 0.0 **** 0.0
7166 H 9.626385 18.160341 35.858308 H 0.0 **** 0.0
7167 H 9.256623 19.749006 35.936458 H 0.0 **** 0.0
7168 O 21.755599 4.809017 19.283733 O 0.0 **** 0.0
7169 H 21.215552 5.320353 19.952273 H 0.0 **** 0.0
7170 H 21.174282 4.130472 18.834611 H 0.0 **** 0.0
7171 O 45.366449 9.693813 25.389227 O 0.0 **** 0.0
7172 H 44.64661 9.227923 24.8746 H 0.0 **** 0.0
7173 H 45.284949 9.46384 26.359038 H 0.0 **** 0.0
7174 O 31.179963 20.859474 25.576866 O 0.0 **** 0.0
7175 H 30.619436 21.650028 25.330092 H 0.0 **** 0.0
7176 H 31.149872 20.725776 26.567463 H 0.0 **** 0.0
7177 O 4.281695 2.968367 33.959081 O 0.0 **** 0.0
7178 H 4.956174 3.704541 33.902615 H 0.0 **** 0.0
7179 H 4.746637 2.085045 33.898807 H 0.0 **** 0.0
7180 O 42.923086 8.214239 38.731488 O 0.0 **** 0.0
7181 H 42.605313 7.890078 37.840419 H 0.0 **** 0.0
7182 H 43.894945 8.00289 38.835815 H 0.0 **** 0.0
7183 O 27.578025 3.805655 21.502471 O 0.0 **** 0.0
7184 H 28.406918 3.246505 21.521182 H 0.0 **** 0.0
7185 H 27.826231 4.765193 21.369264 H 0.0 **** 0.0
7186 O 7.915067 5.02295 12.547578 O 0.0 **** 0.0
7187 H 7.807333 4.347984 11.817594 H 0.0 **** 0.0
7188 H 8.774321 4.856402 13.031321 H 0.0 **** 0.0
7189 O 24.104316 22.418801 18.870307 O 0.0 **** 0.0
7190 H 23.541843 21.734624 19.334623 H 0.0 **** 0.0
7191 H 24.129379 23.256061 19.416595 H 0.0 **** 0.0
7192 O 12.98127 44.08698 8.036155 O 0.0 **** 0.0
7193 H 13.953165 43.889117 7.908352 H 0.0 **** 0.0
7194 H 12.52986 43.292117 8.441723 H 0.0 **** 0.0
7195 O 1.03143 6.74573 31.296749 O 0.0 **** 0.0
7196 H 0.432652 7.545458 31.341053 H 0.0 **** 0.0
7197 H 1.895008 6.999705 30.861096 H 0.0 **** 0.0
7198 O 22.760433 11.08627 33.725734 O 0.0 **** 0.0
7199 H 23.040244 12.031806 33.55921 H 0.0 **** 0.0
7200 H 21.764538 11.042533 33.805384 H 0.0 **** 0.0
7201 O 16.181102 38.042703 25.703403 O 0.0 **** 0.0
7202 H 15.203122 37.839923 25.653424 H 0.0 **** 0.0
7203 H 16.318845 38.899434 26.200497 H 0.0 **** 0.0
7204 O 21.645172 16.588903 0.080536 O 0.0 **** 0.0
7205 H 22.509176 16.091955 -0.000729 H 0.0 **** 0.0
7206 H 21.387283 16.65354 1.044579 H 0.0 **** 0.0
7207 O 33.702789 23.161294 13.569897 O 0.0 **** 0.0
7208 H 33.726028 24.126348 13.308758 H 0.0 **** 0.0
7209 H 33.315886 22.622712 12.821366 H 0.0 **** 0.0
7210 O -0.001296 25.312771 44.529792 O 0.0 **** 0.0
7211 H 0.753028 25.832299 44.931227 H 0.0 **** 0.0
7212 H 0.000924 24.383177 44.898457 H 0.0 **** 0.0
7213 O 5.24467 28.377811 27.804344 O 0.0 **** 0.0
7214 H 5.816492 28.469998 26.989123 H 0.0 **** 0.0
7215 H 5.800526 28.042829 28.565182 H 0.0 **** 0.0
7216 O 42.043743 7.716 25.361856 O 0.0 **** 0.0
7217 H 41.973328 6.72474 25.250018 H 0.0 **** 0.0
7218 H 41.994978 8.15681 24.465545 H 0.0 **** 0.0
7219 O 37.813643 23.841261 16.986675 O 0.0 **** 0.0
7220 H 37.180824 23.068077 16.944362 H 0.0 **** 0.0
7221 H 37.294488 24.694223 17.041417 H 0.0 **** 0.0
7222 O 14.198409 30.370349 9.717077 O 0.0 **** 0.0
7223 H 14.462457 31.301946 9.967016 H 0.0 **** 0.0
7224 H 15.009344 29.859175 9.43221 H 0.0 **** 0.0
7225 O 10.818674 13.239038 40.64154 O 0.0 **** 0.0
7226 H 11.492422 12.538817 40.877799 H 0.0 **** 0.0
7227 H 11.279412 14.009852 40.201506 H 0.0 **** 0.0
7228 O 32.841346 2.501904 48.007882 O 0.0 **** 0.0
7229 H 32.946644 3.447072 47.698636 H 0.0 **** 0.0
7230 H 31.999444 2.118732 47.627826 H 0.0 **** 0.0
7231 O 34.300265 47.779008 40.699136 O 0.0 **** 0.0
7232 H 33.31442 47.939535 40.650112 H 0.0 **** 0.0
7233 H 34.524939 46.934271 40.213332 H 0.0 **** 0.0
7234 O 35.154116 25.017911 24.653344 O 0.0 **** 0.0
7235 H 35.159738 26.017808 24.668764 H 0.0 **** 0.0
7236 H 36.095091 24.679411 24.646461 H 0.0 **** 0.0
7237 O 17.304992 40.247107 23.838924 O 0.0 **** 0.0
7238 H 17.300275 39.348645 24.278021 H 0.0 **** 0.0
7239 H 16.363826 40.557026 23.703941 H 0.0 **** 0.0
7240 O 15.868388 47.80205 11.46099 O 0.0 **** 0.0
7241 H 15.753696 47.109287 12.173021 H 0.0 **** 0.0
7242 H 15.720154 47.385671 10.563929 H 0.0 **** 0.0
7243 O 44.747964 3.898303 1.856774 O 0.0 **** 0.0
7244 H 43.804196 3.827633 1.53371 H 0.0 **** 0.0
7245 H 45.374067 3.766176 1.088268 H 0.0 **** 0.0
7246 O 28.070578 11.412959 28.837952 O 0.0 **** 0.0
7247 H 27.817167 12.37891 28.890722 H 0.0 **** 0.0
7248 H 28.38543 11.201074 27.91273 H 0.0 **** 0.0
7249 O 31.428103 31.406923 44.473391 O 0.0 **** 0.0
7250 H 30.465881 31.613409 44.295749 H 0.0 **** 0.0
7251 H 31.582398 31.360988 45.460379 H 0.0 **** 0.0
7252 O 31.938085 19.086344 21.68125 O 0.0 **** 0.0
7253 H 31.152949 19.487178 22.153433 H 0.0 **** 0.0
7254 H 32.687549 18.957791 22.330742 H 0.0 **** 0.0
7255 O 15.91312 21.108871 24.746649 O 0.0 **** 0.0
7256 H 16.718108 21.012936 25.332186 H 0.0 **** 0.0
7257 H 15.099632 21.229619 25.315613 H 0.0 **** 0.0
7258 O 22.154914 10.672743 42.331023 O 0.0 **** 0.0
7259 H 22.799556 9.908436 42.349286 H 0.0 **** 0.0
7260 H 22.659574 11.535322 42.367614 H 0.0 **** 0.0
7261 O 1.813015 31.546529 26.94239 O 0.0 **** 0.0
7262 H 2.631329 31.880192 26.474317 H 0.0 **** 0.0
7263 H 1.839454 31.828341 27.901529 H 0.0 **** 0.0
7264 O 47.516882 38.681849 46.255051 O 0.0 **** 0.0
7265 H 47.572895 39.64196 45.980982 H 0.0 **** 0.0
7266 H 46.60393 38.490962 46.615805 H 0.0 **** 0.0
7267 O 9.680655 27.203944 47.989368 O 0.0 **** 0.0
7268 H 10.493201 27.786768 48.001493 H 0.0 **** 0.0
7269 H 8.860613 27.775846 47.966483 H 0.0 **** 0.0
7270 O 37.828381 12.045847 23.573273 O 0.0 **** 0.0
7271 H 37.443395 11.51947 24.331413 H 0.0 **** 0.0
7272 H 37.998316 12.984969 23.871994 H 0.0 **** 0.0
7273 O 23.787502 38.623825 26.206696 O 0.0 **** 0.0
7274 H 24.424407 37.894122 26.45559 H 0.0 **** 0.0
7275 H 22.867123 38.244597 26.111026 H 0.0 **** 0.0
7276 O 2.580845 22.392537 37.05998 O 0.0 **** 0.0
7277 H 3.526276 22.173932 36.818246 H 0.0 **** 0.0
7278 H 2.416729 23.368223 36.914495 H 0.0 **** 0.0
7279 O 40.789861 21.006823 25.244244 O 0.0 **** 0.0
7280 H 40.769681 20.397517 26.036962 H 0.0 **** 0.0
7281 H 41.57748 20.781524 24.670694 H 0.0 **** 0.0
7282 O 32.118409 16.615194 22.798931 O 0.0 **** 0.0
7283 H 31.773317 15.682144 22.696989 H 0.0 **** 0.0
7284 H 31.355402 17.259843 22.750863 H 0.0 **** 0.0
7285 O 26.984829 11.140245 4.975082 O 0.0 **** 0.0
7286 H 27.662617 11.274737 4.252185 H 0.0 **** 0.0
7287 H 27.044235 11.892159 5.631708 H 0.0 **** 0.0
7288 O 40.875045 15.189645 34.181652 O 0.0 **** 0.0
7289 H 40.374104 14.32701 34.252233 H 0.0 **** 0.0
7290 H 40.226106 15.949279 34.138087 H 0.0 **** 0.0
7291 O 26.652886 31.202053 5.288561 O 0.0 **** 0.0
7292 H 25.81818 30.656279 5.214675 H 0.0 **** 0.0
7293 H 26.824223 31.420611 6.249259 H 0.0 **** 0.0
7294 O 6.482114 11.128586 36.628908 O 0.0 **** 0.0
7295 H 5.985741 10.261253 36.591365 H 0.0 **** 0.0
7296 H 7.053653 11.150247 37.449235 H 0.0 **** 0.0
7297 O 15.228673 38.085711 5.605575 O 0.0 **** 0.0
7298 H 16.060396 38.094804 5.050401 H 0.0 **** 0.0
7299 H 14.430436 38.004355 5.008699 H 0.0 **** 0.0
7300 O 15.3327 29.477816 -0.003287 O 0.0 **** 0.0
7301 H 15.586891 29.910904 0.861516 H 0.0 **** 0.0
7302 H 14.816146 28.641776 0.181843 H 0.0 **** 0.0
7303 O 31.142585 45.566815 19.368915 O 0.0 **** 0.0
7304 H 31.922498 45.940486 19.87108 H 0.0 **** 0.0
7305 H 31.199826 44.568471 19.359212 H 0.0 **** 0.0
7306 O 23.531593 14.233865 47.226477 O 0.0 **** 0.0
7307 H 22.535091 14.159449 47.265336 H 0.0 **** 0.0
7308 H 23.797188 15.195064 47.301437 H 0.0 **** 0.0
7309 O 34.628181 35.774267 0.076751 O 0.0 **** 0.0
7310 H 34.346128 36.720398 0.235957 H 0.0 **** 0.0
7311 H 35.624324 35.731975 -0.000526 H 0.0 **** 0.0
7312 O 34.570603 17.723649 36.910591 O 0.0 **** 0.0
7313 H 35.508666 17.560556 37.216372 H 0.0 **** 0.0
7314 H 33.971847 17.011834 37.277841 H 0.0 **** 0.0
7315 O 4.701725 38.526184 32.682658 O 0.0 **** 0.0
7316 H 3.953812 37.862339 32.682756 H 0.0 **** 0.0
7317 H 4.325257 39.452378 32.70501 H 0.0 **** 0.0
7318 O 29.371116 15.14032 23.415541 O 0.0 **** 0.0
7319 H 29.807295 15.824583 24.000002 H 0.0 **** 0.0
7320 H 29.317253 15.487357 22.479204 H 0.0 **** 0.0
7321 O 29.399135 34.585804 27.755316 O 0.0 **** 0.0
7322 H 29.812567 33.801751 27.292286 H 0.0 **** 0.0
7323 H 28.430502 34.401542 27.922234 H 0.0 **** 0.0
7324 O 30.208245 26.567245 12.785325 O 0.0 **** 0.0
7325 H 29.770896 26.196505 13.604679 H 0.0 **** 0.0
7326 H 31.026966 27.078461 13.046889 H 0.0 **** 0.0
7327 O 23.491888 17.244433 18.87658 O 0.0 **** 0.0
7328 H 24.075338 16.441354 18.755287 H 0.0 **** 0.0
7329 H 22.680738 17.157482 18.298187 H 0.0 **** 0.0
7330 O 11.259734 36.110992 0.670407 O 0.0 **** 0.0
7331 H 11.987929 35.975187 -0.00142 H 0.0 **** 0.0
7332 H 10.700312 36.895125 0.401624 H 0.0 **** 0.0
7333 O 42.237262 16.559554 7.826814 O 0.0 **** 0.0
7334 H 42.510834 16.973156 8.695235 H 0.0 **** 0.0
7335 H 41.889674 17.26959 7.214365 H 0.0 **** 0.0
7336 O 10.847854 31.505669 3.777454 O 0.0 **** 0.0
7337 H 11.682275 31.993188 4.034611 H 0.0 **** 0.0
7338 H 11.086714 30.696111 3.241146 H 0.0 **** 0.0
7339 O 45.355009 42.011652 31.253257 O 0.0 **** 0.0
7340 H 45.471007 42.89777 31.702036 H 0.0 **** 0.0
7341 H 44.772792 41.426073 31.817335 H 0.0 **** 0.0
7342 O 29.623496 13.960373 25.501076 O 0.0 **** 0.0
7343 H 29.297402 14.815047 25.905129 H 0.0 **** 0.0
7344 H 28.851944 13.337643 25.370776 H 0.0 **** 0.0
7345 O 38.417632 18.779069 37.950169 O 0.0 **** 0.0
7346 H 37.575545 18.438119 37.532191 H 0.0 **** 0.0
7347 H 39.200807 18.284671 37.572983 H 0.0 **** 0.0
7348 O 3.396894 2.935548 38.352879 O 0.0 **** 0.0
7349 H 2.523958 3.423448 38.35264 H 0.0 **** 0.0
7350 H 3.408566 2.27297 37.603935 H 0.0 **** 0.0
7351 O 36.092377 39.907056 45.580793 O 0.0 **** 0.0
7352 H 35.319222 40.010187 46.206619 H 0.0 **** 0.0
7353 H 35.829863 39.310643 44.822215 H 0.0 **** 0.0
7354 O 24.796506 33.663638 42.051561 O 0.0 **** 0.0
7355 H 25.717393 34.03832 41.943653 H 0.0 **** 0.0
7356 H 24.131386 34.410398 42.056916 H 0.0 **** 0.0
7357 O 18.613005 8.602661 44.177469 O 0.0 **** 0.0
7358 H 19.050992 9.064842 43.406354 H 0.0 **** 0.0
7359 H 19.312827 8.290037 44.819792 H 0.0 **** 0.0
7360 O 23.145681 9.740652 8.144531 O 0.0 **** 0.0
7361 H 22.543935 9.065609 7.717586 H 0.0 **** 0.0
7362 H 23.599003 9.329915 8.935643 H 0.0 **** 0.0
7363 O 42.255017 27.648803 7.630601 O 0.0 **** 0.0
7364 H 43.203832 27.776063 7.341435 H 0.0 **** 0.0
7365 H 42.049241 26.67131 7.677782 H 0.0 **** 0.0
7366 O 10.647195 13.758573 13.817941 O 0.0 **** 0.0
7367 H 10.105733 14.434352 14.318144 H 0.0 **** 0.0
7368 H 10.10725 13.394524 13.059 H 0.0 **** 0.0
7369 O 37.368497 10.97176 1.061566 O 0.0 **** 0.0
7370 H 36.703737 10.425464 1.57119 H 0.0 **** 0.0
7371 H 38.207797 10.442866 0.935432 H 0.0 **** 0.0
7372 O 29.217941 23.599024 19.392193 O 0.0 **** 0.0
7373 H 29.08042 22.92088 18.670202 H 0.0 **** 0.0
7374 H 28.832997 23.256198 20.249136 H 0.0 **** 0.0
7375 O 36.916567 43.908443 34.492289 O 0.0 **** 0.0
7376 H 36.046881 43.834701 34.004159 H 0.0 **** 0.0
7377 H 37.029201 44.84173 34.833393 H 0.0 **** 0.0
7378 O 0.652455 37.376703 5.812554 O 0.0 **** 0.0
7379 H 1.122642 37.684643 6.639693 H 0.0 **** 0.0
7380 H -0.007008 36.663422 6.050044 H 0.0 **** 0.0
7381 O 22.41634 25.830008 44.534723 O 0.0 **** 0.0
7382 H 22.960345 25.022544 44.76303 H 0.0 **** 0.0
7383 H 22.944163 26.655238 44.735871 H 0.0 **** 0.0
7384 O 32.044737 27.207797 35.126052 O 0.0 **** 0.0
7385 H 31.167163 27.686973 35.108253 H 0.0 **** 0.0
7386 H 32.628057 27.606853 35.833551 H 0.0 **** 0.0
7387 O 42.783873 15.53645 45.521646 O 0.0 **** 0.0
7388 H 42.704685 14.634777 45.946826 H 0.0 **** 0.0
7389 H 41.952714 15.733943 45.001806 H 0.0 **** 0.0
7390 O 15.3487 18.031551 16.422796 O 0.0 **** 0.0
7391 H 14.3746 18.257494 16.410921 H 0.0 **** 0.0
7392 H 15.885285 18.873123 16.485212 H 0.0 **** 0.0
7393 O 18.46066 3.252591 33.080503 O 0.0 **** 0.0
7394 H 19.235527 3.704936 33.522124 H 0.0 **** 0.0
7395 H 17.720273 3.137491 33.742804 H 0.0 **** 0.0
7396 O 24.948979 19.52811 38.101408 O 0.0 **** 0.0
7397 H 24.981815 20.381217 38.622168 H 0.0 **** 0.0
7398 H 25.846237 19.349396 37.69761 H 0.0 **** 0.0
7399 O 19.259555 11.879273 11.510101 O 0.0 **** 0.0
7400 H 19.926536 12.609746 11.363106 H 0.0 **** 0.0
7401 H 19.233856 11.641902 12.481213 H 0.0 **** 0.0
7402 O 28.442896 13.229216 3.612568 O 0.0 **** 0.0
7403 H 28.936212 13.963325 4.079245 H 0.0 **** 0.0
7404 H 28.512713 13.357236 2.623225 H 0.0 **** 0.0
7405 O 19.377094 3.810435 16.382238 O 0.0 **** 0.0
7406 H 20.363336 3.764618 16.541266 H 0.0 **** 0.0
7407 H 19.083419 4.766373 16.383185 H 0.0 **** 0.0
7408 O 47.422486 21.874069 18.486252 O 0.0 **** 0.0
7409 H 47.996824 21.680056 17.690917 H 0.0 **** 0.0
7410 H 48.002394 22.032515 19.285418 H 0.0 **** 0.0
7411 O 43.49845 27.654201 23.293215 O 0.0 **** 0.0
7412 H 43.986094 26.99519 23.865902 H 0.0 **** 0.0
7413 H 43.500302 28.549126 23.739499 H 0.0 **** 0.0
7414 O 14.716363 45.327311 45.583499 O 0.0 **** 0.0
7415 H 14.797208 46.012389 46.307512 H 0.0 **** 0.0
7416 H 14.392164 44.465869 45.974492 H 0.0 **** 0.0
7417 O 47.525998 24.507088 15.244234 O 0.0 **** 0.0
7418 H 47.745995 24.654102 14.279843 H 0.0 **** 0.0
7419 H 47.997226 23.688407 15.572517 H 0.0 **** 0.0
7420 O 19.021777 28.207257 11.298254 O 0.0 **** 0.0
7421 H 18.973482 27.35683 11.822185 H 0.0 **** 0.0
7422 H 19.577689 28.873699 11.795124 H 0.0 **** 0.0
7423 O 3.549827 38.331563 16.889392 O 0.0 **** 0.0
7424 H 4.222904 39.064892 16.985615 H 0.0 **** 0.0
7425 H 4.017143 37.478781 16.656065 H 0.0 **** 0.0
7426 O 14.563191 23.199708 29.548245 O 0.0 **** 0.0
7427 H 15.252656 22.574101 29.913373 H 0.0 **** 0.0
7428 H 14.363447 23.907689 30.225687 H 0.0 **** 0.0
7429 O 28.380195 11.611446 45.134694 O 0.0 **** 0.0
7430 H 28.510756 10.633484 44.971575 H 0.0 **** 0.0
7431 H 29.271422 12.057051 45.219635 H 0.0 **** 0.0
7432 O 19.930699 20.61662 14.512849 O 0.0 **** 0.0
7433 H 20.502899 21.393371 14.249585 H 0.0 **** 0.0
7434 H 19.168585 20.93924 15.074242 H 0.0 **** 0.0
7435 O 33.809727 45.897452 2.954083 O 0.0 **** 0.0
7436 H 32.818197 46.009481 2.887888 H 0.0 **** 0.0
7437 H 34.262803 46.677839 2.52306 H 0.0 **** 0.0
7438 O 33.026274 1.068803 36.805457 O 0.0 **** 0.0
7439 H 33.101216 0.521282 37.638924 H 0.0 **** 0.0
7440 H 32.324565 0.676278 36.210821 H 0.0 **** 0.0
7441 O 20.374803 27.311508 9.812623 O 0.0 **** 0.0
7442 H 21.238961 27.581689 9.388011 H 0.0 **** 0.0
7443 H 19.684453 27.170681 9.102942 H 0.0 **** 0.0
7444 O 42.5977 46.511203 13.737023 O 0.0 **** 0.0
7445 H 43.044024 47.352282 14.042709 H 0.0 **** 0.0
7446 H 43.217003 46.004227 13.137439 H 0.0 **** 0.0
7447 O 44.693396 22.513874 37.095184 O 0.0 **** 0.0
7448 H 43.837113 22.081962 36.811821 H 0.0 **** 0.0
7449 H 45.462187 22.050676 36.654195 H 0.0 **** 0.0
7450 O 36.332413 42.605104 23.511251 O 0.0 **** 0.0
7451 H 35.792379 43.439015 23.625354 H 0.0 **** 0.0
7452 H 37.262721 42.845788 23.234373 H 0.0 **** 0.0
7453 O 6.419758 47.409633 38.425769 O 0.0 **** 0.0
7454 H 6.139601 46.563315 37.972647 H 0.0 **** 0.0
7455 H 7.254856 47.755892 37.998241 H 0.0 **** 0.0
7456 O 24.676943 44.27276 8.730266 O 0.0 **** 0.0
7457 H 24.80787 43.394373 8.270529 H 0.0 **** 0.0
7458 H 23.812193 44.26049 9.232381 H 0.0 **** 0.0
7459 O 8.439598 42.274493 6.272601 O 0.0 **** 0.0
7460 H 8.809149 41.510845 6.80207 H 0.0 **** 0.0
7461 H 7.748574 41.934293 5.634781 H 0.0 **** 0.0
7462 O 11.759077 16.078943 45.601925 O 0.0 **** 0.0
7463 H 11.783713 16.306286 46.57546 H 0.0 **** 0.0
7464 H 11.227956 15.242193 45.468424 H 0.0 **** 0.0
7465 O 30.745655 35.139596 15.284326 O 0.0 **** 0.0
7466 H 31.212434 36.023449 15.252952 H 0.0 **** 0.0
7467 H 29.872675 35.240496 15.761597 H 0.0 **** 0.0
7468 O 40.270902 19.139226 39.291592 O 0.0 **** 0.0
7469 H 40.338949 20.112064 39.070187 H 0.0 **** 0.0
7470 H 39.467695 18.983706 39.866688 H 0.0 **** 0.0
7471 O 36.460654 31.004523 11.839902 O 0.0 **** 0.0
7472 H 36.22179 30.04822 11.671107 H 0.0 **** 0.0
7473 H 37.426278 31.149903 11.624267 H 0.0 **** 0.0
7474 O 39.654215 34.289838 42.386867 O 0.0 **** 0.0
7475 H 40.294762 34.447395 41.635244 H 0.0 **** 0.0
7476 H 39.879494 34.896341 43.149407 H 0.0 **** 0.0
7477 O 0.893517 4.685091 0.270061 O 0.0 **** 0.0
7478 H 1.174724 5.482483 0.804057 H 0.0 **** 0.0
7479 H -0.000329 4.369195 0.588356 H 0.0 **** 0.0
7480 O 18.336175 14.737192 40.627207 O 0.0 **** 0.0
7481 H 17.874559 14.262635 41.37672 H 0.0 **** 0.0
7482 H 19.192766 14.267749 40.412877 H 0.0 **** 0.0
7483 O 0.674984 47.916646 40.469428 O 0.0 **** 0.0
7484 H 0.042317 47.213305 40.793631 H 0.0 **** 0.0
7485 H 1.43679 48.001309 41.111726 H 0.0 **** 0.0
7486 O 18.151587 9.474207 9.837745 O 0.0 **** 0.0
7487 H 18.754359 10.044639 10.39572 H 0.0 **** 0.0
7488 H 18.039907 8.58128 10.273947 H 0.0 **** 0.0
7489 O 20.76891 40.540333 9.901988 O 0.0 **** 0.0
7490 H 20.893815 39.548569 9.872561 H 0.0 **** 0.0
7491 H 19.791807 40.753059 9.910911 H 0.0 **** 0.0
7492 O 39.401038 29.698885 5.204332 O 0.0 **** 0.0
7493 H 38.510781 29.24582 5.157031 H 0.0 **** 0.0
7494 H 39.509387 30.127972 6.101108 H 0.0 **** 0.0
7495 O 24.803399 7.364075 41.304431 O 0.0 **** 0.0
7496 H 25.575078 6.799964 41.59829 H 0.0 **** 0.0
7497 H 24.074658 6.775561 40.954216 H 0.0 **** 0.0
7498 O 27.469983 30.718115 10.712259 O 0.0 **** 0.0
7499 H 28.365026 30.351433 10.458278 H 0.0 **** 0.0
7500 H 26.759726 30.268621 10.170454 H 0.0 **** 0.0
7501 O 42.145649 3.501028 32.438697 O 0.0 **** 0.0
7502 H 42.392328 4.436236 32.692856 H 0.0 **** 0.0
7503 H 42.924405 2.895072 32.601237 H 0.0 **** 0.0
7504 O 5.586843 8.207095 34.565362 O 0.0 **** 0.0
7505 H 5.686662 7.723286 33.695862 H 0.0 **** 0.0
7506 H 6.352758 7.975776 35.165302 H 0.0 **** 0.0
7507 O 25.971812 42.211567 11.558052 O 0.0 **** 0.0
7508 H 25.453152 41.356683 11.573163 H 0.0 **** 0.0
7509 H 26.950694 42.007325 11.54632 H 0.0 **** 0.0
7510 O 25.234473 35.548747 14.269162 O 0.0 **** 0.0
7511 H 24.492062 35.201783 13.696009 H 0.0 **** 0.0
7512 H 24.891723 36.290651 14.845499 H 0.0 **** 0.0
7513 O 41.524776 13.483748 37.076394 O 0.0 **** 0.0
7514 H 40.927294 12.967918 37.690394 H 0.0 **** 0.0
7515 H 40.990521 13.831535 36.305888 H 0.0 **** 0.0
7516 O 40.274662 13.072524 13.432693 O 0.0 **** 0.0
7517 H 39.830775 13.964245 13.521357 H 0.0 **** 0.0
7518 H 41.267272 13.193787 13.42359 H 0.0 **** 0.0
7519 O 32.823127 20.522233 12.314584 O 0.0 **** 0.0
7520 H 32.162573 20.983802 11.722398 H 0.0 **** 0.0
7521 H 33.708091 20.472538 11.851516 H 0.0 **** 0.0
7522 O 0.220149 28.542414 46.431043 O 0.0 **** 0.0
7523 H 0.644467 27.781576 45.939981 H 0.0 **** 0.0
7524 H -0.002413 28.255038 47.362678 H 0.0 **** 0.0
7525 O 13.106718 36.435821 4.216788 O 0.0 **** 0.0
7526 H 12.588751 36.497923 3.363608 H 0.0 **** 0.0
7527 H 13.397561 35.490103 4.362014 H 0.0 **** 0.0
7528 O 6.53158 39.887049 5.798526 O 0.0 **** 0.0
7529 H 5.604369 40.249406 5.703443 H 0.0 **** 0.0
7530 H 6.519901 38.89827 5.649389 H 0.0 **** 0.0
7531 O 46.412245 4.96704 33.610529 O 0.0 **** 0.0
7532 H 46.142598 4.801971 32.66179 H 0.0 **** 0.0
7533 H 46.148652 4.183385 34.173083 H 0.0 **** 0.0
7534 O 15.653452 26.9919 19.747631 O 0.0 **** 0.0
7535 H 16.27618 27.660913 20.153457 H 0.0 **** 0.0
7536 H 14.822791 26.931161 20.301143 H 0.0 **** 0.0
7537 O 30.518785 29.484089 38.635436 O 0.0 **** 0.0
7538 H 29.942217 28.954753 38.012992 H 0.0 **** 0.0
7539 H 30.434395 30.457298 38.421415 H 0.0 **** 0.0
7540 O 11.603122 38.76047 20.004756 O 0.0 **** 0.0
7541 H 10.707316 38.581787 19.597733 H 0.0 **** 0.0
7542 H 11.512557 39.455997 20.717569 H 0.0 **** 0.0
7543 O 47.009593 2.447552 46.407974 O 0.0 **** 0.0
7544 H 46.757094 2.419366 47.375193 H 0.0 **** 0.0
7545 H 48.004295 2.50856 46.324848 H 0.0 **** 0.0
7546 O 8.398478 14.69487 42.931492 O 0.0 **** 0.0
7547 H 8.636819 14.97141 43.862504 H 0.0 **** 0.0
7548 H 9.23458 14.555814 42.400775 H 0.0 **** 0.0
7549 O 33.643792 28.571458 44.414351 O 0.0 **** 0.0
7550 H 33.994929 27.671449 44.672707 H 0.0 **** 0.0
7551 H 33.381142 29.075492 45.237168 H 0.0 **** 0.0
7552 O 43.399355 23.302582 5.918297 O 0.0 **** 0.0
7553 H 43.784235 23.929096 5.2405 H 0.0 **** 0.0
7554 H 42.418573 23.196074 5.754633 H 0.0 **** 0.0
7555 O 12.123664 8.667422 26.068226 O 0.0 **** 0.0
7556 H 13.075084 8.567525 26.359576 H 0.0 **** 0.0
7557 H 11.943308 8.050818 25.301849 H 0.0 **** 0.0
7558 O 40.200234 7.249498 22.068087 O 0.0 **** 0.0
7559 H 40.69386 8.114158 22.161685 H 0.0 **** 0.0
7560 H 39.21918 7.431393 22.000938 H 0.0 **** 0.0
7561 O 36.418851 1.855856 41.017204 O 0.0 **** 0.0
7562 H 36.740149 2.281111 41.863365 H 0.0 **** 0.0
7563 H 36.003756 0.970323 41.225989 H 0.0 **** 0.0
7564 O 45.532953 45.355947 47.938878 O 0.0 **** 0.0
7565 H 45.798842 44.393877 48.000417 H 0.0 **** 0.0
7566 H 44.804809 45.45777 47.261013 H 0.0 **** 0.0
7567 O 24.185284 13.21079 19.82068 O 0.0 **** 0.0
7568 H 23.837847 13.686435 20.628834 H 0.0 **** 0.0
7569 H 24.922338 12.590885 20.090001 H 0.0 **** 0.0
7570 O 15.080297 4.972216 30.049823 O 0.0 **** 0.0
7571 H 15.00276 5.6601 30.771534 H 0.0 **** 0.0
7572 H 16.030594 4.66887 29.979253 H 0.0 **** 0.0
7573 O 32.651568 11.545686 9.381759 O 0.0 **** 0.0
7574 H 33.635427 11.372811 9.334865 H 0.0 **** 0.0
7575 H 32.42547 12.339835 8.817604 H 0.0 **** 0.0
7576 O 16.526896 12.949334 13.346454 O 0.0 **** 0.0
7577 H 17.405391 12.483421 13.45244 H 0.0 **** 0.0
7578 H 16.078943 13.022736 14.237528 H 0.0 **** 0.0
7579 O 29.415813 5.114475 40.893024 O 0.0 **** 0.0
7580 H 28.494725 5.422934 41.130747 H 0.0 **** 0.0
7581 H 29.388794 4.625126 40.021318 H 0.0 **** 0.0
7582 O 39.606174 15.968046 18.104256 O 0.0 **** 0.0
7583 H 38.883507 16.623372 18.324172 H 0.0 **** 0.0
7584 H 39.201819 15.067801 17.942641 H 0.0 **** 0.0
7585 O 21.837683 18.437557 11.075164 O 0.0 **** 0.0
7586 H 21.021555 18.493182 11.650407 H 0.0 **** 0.0
7587 H 21.590284 18.064653 10.180849 H 0.0 **** 0.0
7588 O 29.859613 47.418981 28.8815 O 0.0 **** 0.0
7589 H 29.001516 47.721312 29.296626 H 0.0 **** 0.0
7590 H 30.558699 47.327078 29.59065 H 0.0 **** 0.0
7591 O 9.342454 13.570785 16.941116 O 0.0 **** 0.0
7592 H 9.344229 14.570786 16.948702 H 0.0 **** 0.0
7593 H 9.18893 13.244853 16.008238 H 0.0 **** 0.0
7594 O 48.017545 2.537895 41.270026 O 0.0 **** 0.0
7595 H 47.108846 2.955195 41.25624 H 0.0 **** 0.0
7596 H 47.990267 1.697729 41.811727 H 0.0 **** 0.0
7597 O 26.18045 5.519578 4.085831 O 0.0 **** 0.0
7598 H 25.716513 4.633795 4.071182 H 0.0 **** 0.0
7599 H 25.500304 6.251325 4.130665 H 0.0 **** 0.0
7600 O 13.809525 36.412186 6.951775 O 0.0 **** 0.0
7601 H 14.675019 36.144107 7.374996 H 0.0 **** 0.0
7602 H 13.367141 35.606185 6.558427 H 0.0 **** 0.0
7603 O 12.663197 31.078117 33.254622 O 0.0 **** 0.0
7604 H 11.677381 30.9176 33.204998 H 0.0 **** 0.0
7605 H 12.847127 32.055924 33.153985 H 0.0 **** 0.0
7606 O 17.493699 0.706561 41.427048 O 0.0 **** 0.0
7607 H 18.300866 0.29966 41.854805 H 0.0 **** 0.0
7608 H 16.801797 -0.000528 41.280898 H 0.0 **** 0.0
7609 O 5.534896 37.137021 26.60272 O 0.0 **** 0.0
7610 H 6.163295 37.900721 26.454595 H 0.0 **** 0.0
7611 H 5.973555 36.284515 26.318337 H 0.0 **** 0.0
7612 O 11.371385 32.770435 39.45757 O 0.0 **** 0.0
7613 H 11.029902 32.58226 38.536678 H 0.0 **** 0.0
7614 H 12.360451 32.62486 39.482465 H 0.0 **** 0.0
7615 O 28.047591 46.470977 20.2095 O 0.0 **** 0.0
7616 H 27.789007 47.436937 20.198579 H 0.0 **** 0.0
7617 H 27.523995 45.993765 20.915317 H 0.0 **** 0.0
7618 O 17.615273 27.57731 36.929197 O 0.0 **** 0.0
7619 H 18.257846 28.210053 37.3614 H 0.0 **** 0.0
7620 H 16.965516 27.243818 37.612324 H 0.0 **** 0.0
7621 O 26.467329 24.505439 18.533842 O 0.0 **** 0.0
7622 H 25.874969 24.640973 19.328073 H 0.0 **** 0.0
7623 H 26.610931 23.526522 18.388367 H 0.0 **** 0.0
7624 O 42.752549 9.981995 23.526513 O 0.0 **** 0.0
7625 H 42.916214 10.929505 23.801286 H 0.0 **** 0.0
7626 H 41.835292 9.901854 23.136281 H 0.0 **** 0.0
7627 O 16.22972 39.985431 15.568296 O 0.0 **** 0.0
7628 H 15.460911 39.49938 15.983928 H 0.0 **** 0.0
7629 H 15.934696 40.899379 15.289508 H 0.0 **** 0.0
7630 O 6.6252 34.328284 7.21651 O 0.0 **** 0.0
7631 H 7.571802 34.01319 7.147783 H 0.0 **** 0.0
7632 H 6.014007 33.538485 7.268689 H 0.0 **** 0.0
7633 O 24.93617 2.454694 2.89801 O 0.0 **** 0.0
7634 H 25.891631 2.74344 2.959503 H 0.0 **** 0.0
7635 H 24.340783 3.254698 2.972639 H 0.0 **** 0.0
7636 O 27.742837 30.487517 28.550703 O 0.0 **** 0.0
7637 H 27.715194 29.669957 29.125937 H 0.0 **** 0.0
7638 H 28.090936 31.258587 29.08394 H 0.0 **** 0.0
7639 O 20.794647 27.332358 6.272545 O 0.0 **** 0.0
7640 H 20.73665 27.627679 7.226215 H 0.0 **** 0.0
7641 H 20.290415 27.973428 5.693889 H 0.0 **** 0.0
7642 O 31.248186 45.116021 0.573621 O 0.0 **** 0.0
7643 H 30.527625 45.502187 -0.002339 H 0.0 **** 0.0
7644 H 31.179316 44.118372 0.569539 H 0.0 **** 0.0
7645 O 17.989437 32.052929 43.76627 O 0.0 **** 0.0
7646 H 17.560313 32.754429 44.335316 H 0.0 **** 0.0
7647 H 17.934871 31.168474 44.229763 H 0.0 **** 0.0
7648 O 17.470768 1.575247 14.196384 O 0.0 **** 0.0
7649 H 18.257577 1.035297 14.495466 H 0.0 **** 0.0
7650 H 17.121481 2.10981 14.965996 H 0.0 **** 0.0
7651 O 18.318675 28.502077 7.160695 O 0.0 **** 0.0
7652 H 17.893179 27.600292 7.236859 H 0.0 **** 0.0
7653 H 17.615192 29.209443 7.230037 H 0.0 **** 0.0
7654 O 41.838006 17.530835 36.385176 O 0.0 **** 0.0
7655 H 41.31539 16.688292 36.254569 H 0.0 **** 0.0
7656 H 41.30056 18.175484 36.928905 H 0.0 **** 0.0
7657 O 6.202942 16.360632 28.561499 O 0.0 **** 0.0
7658 H 6.177367 15.362628 28.61979 H 0.0 **** 0.0
7659 H 5.270287 16.720236 28.591544 H 0.0 **** 0.0
7660 O 11.526646 17.421767 6.434356 O 0.0 **** 0.0
7661 H 10.698545 17.975799 6.348568 H 0.0 **** 0.0
7662 H 12.327769 17.987257 6.238178 H 0.0 **** 0.0
7663 O 26.522682 43.743669 9.802522 O 0.0 **** 0.0
7664 H 27.177069 43.818671 9.050049 H 0.0 **** 0.0
7665 H 26.925134 44.12743 10.63368 H 0.0 **** 0.0
7666 O 17.196235 27.266207 10.235774 O 0.0 **** 0.0
7667 H 17.551194 26.761729 9.448646 H 0.0 **** 0.0
7668 H 17.064022 26.637757 11.002346 H 0.0 **** 0.0
7669 O 44.775825 36.054259 30.023805 O 0.0 **** 0.0
7670 H 44.906145 36.934742 29.567923 H 0.0 **** 0.0
7671 H 44.180137 36.175071 30.817923 H 0.0 **** 0.0
7672 O 10.855362 1.438928 40.008403 O 0.0 **** 0.0
7673 H 10.340754 0.71028 39.556392 H 0.0 **** 0.0
7674 H 10.220928 2.131942 40.350878 H 0.0 **** 0.0
7675 O 44.176605 1.126753 16.835716 O 0.0 **** 0.0
7676 H 43.753864 0.286327 16.496545 H 0.0 **** 0.0
7677 H 45.004264 0.899817 17.349082 H 0.0 **** 0.0
7678 O 42.618006 9.834456 31.164567 O 0.0 **** 0.0
7679 H 43.139245 10.631989 30.860733 H 0.0 **** 0.0
7680 H 42.656751 9.771173 32.161842 H 0.0 **** 0.0
7681 O 32.016708 3.74839 5.586185 O 0.0 **** 0.0
7682 H 32.771074 3.411813 6.149844 H 0.0 **** 0.0
7683 H 31.163957 3.698092 6.106136 H 0.0 **** 0.0
7684 O 31.662458 29.525764 40.51417 O 0.0 **** 0.0
7685 H 30.714207 29.477118 40.828043 H 0.0 **** 0.0
7686 H 32.161791 28.721393 40.836221 H 0.0 **** 0.0
7687 O 40.933614 33.254427 35.410377 O 0.0 **** 0.0
7688 H 40.589117 32.394178 35.034403 H 0.0 **** 0.0
7689 H 41.717524 33.06894 36.002949 H 0.0 **** 0.0
7690 O 37.128209 27.709347 30.160107 O 0.0 **** 0.0
7691 H 36.204548 27.366239 30.330955 H 0.0 **** 0.0
7692 H 37.602631 27.837249 31.031099 H 0.0 **** 0.0
7693 O 30.243105 33.706164 40.489962 O 0.0 **** 0.0
7694 H 30.494856 33.624061 39.525626 H 0.0 **** 0.0
7695 H 30.703729 34.499402 40.888285 H 0.0 **** 0.0
7696 O 22.789218 8.106253 28.088603 O 0.0 **** 0.0
7697 H 23.42991 7.351089 28.227542 H 0.0 **** 0.0
7698 H 21.956336 7.937977 28.615911 H 0.0 **** 0.0
7699 O 38.669882 38.950845 8.196988 O 0.0 **** 0.0
7700 H 39.192693 38.793822 9.034888 H 0.0 **** 0.0
7701 H 39.14905 39.616668 7.625026 H 0.0 **** 0.0
7702 O 38.141681 20.94513 12.457148 O 0.0 **** 0.0
7703 H 38.137672 20.660433 13.41579 H 0.0 **** 0.0
7704 H 38.499861 20.202987 11.890585 H 0.0 **** 0.0
7705 O 48.000685 27.767041 43.480059 O 0.0 **** 0.0
7706 H 47.362454 28.142111 42.807714 H 0.0 **** 0.0
7707 H 47.875883 26.776749 43.541789 H 0.0 **** 0.0
7708 O 36.948678 38.759579 1.89919 O 0.0 **** 0.0
7709 H 37.256577 37.864839 2.222765 H 0.0 **** 0.0
7710 H 37.056209 39.433443 2.630221 H 0.0 **** 0.0
7711 O 16.615552 48.045878 2.136536 O 0.0 **** 0.0
7712 H 17.23053 47.309917 2.41978 H 0.0 **** 0.0
7713 H 15.673181 47.797666 2.361012 H 0.0 **** 0.0
7714 O 30.0714 31.716485 14.944149 O 0.0 **** 0.0
7715 H 30.198855 32.662345 15.242756 H 0.0 **** 0.0
7716 H 30.555042 31.102126 15.567621 H 0.0 **** 0.0
7717 O 19.948081 36.387813 26.275594 O 0.0 **** 0.0
7718 H 20.861397 36.55572 26.646708 H 0.0 **** 0.0
7719 H 19.308717 36.221393 27.026314 H 0.0 **** 0.0
7720 O 28.426186 44.643688 3.23247 O 0.0 **** 0.0
7721 H 28.843702 44.124715 2.48654 H 0.0 **** 0.0
7722 H 27.830426 45.351709 2.853209 H 0.0 **** 0.0
7723 O -0.016132 4.600323 4.20162 O 0.0 **** 0.0
7724 H 0.470507 4.151833 3.451885 H 0.0 **** 0.0
7725 H 0.645386 4.98655 4.844492 H 0.0 **** 0.0
7726 O 8.323489 30.75519 9.326073 O 0.0 **** 0.0
7727 H 9.323373 30.739771 9.333728 H 0.0 **** 0.0
7728 H 8.004783 31.703077 9.326455 H 0.0 **** 0.0
7729 O 9.703166 27.975112 4.116514 O 0.0 **** 0.0
7730 H 9.877727 28.956217 4.032703 H 0.0 **** 0.0
7731 H 8.727547 27.797915 3.986774 H 0.0 **** 0.0
7732 O 34.330891 38.463715 27.965865 O 0.0 **** 0.0
7733 H 33.992623 37.587363 28.308858 H 0.0 **** 0.0
7734 H 33.765762 39.204399 28.329292 H 0.0 **** 0.0
7735 O 3.189896 6.817577 7.596868 O 0.0 **** 0.0
7736 H 3.017118 7.104669 8.539093 H 0.0 **** 0.0
7737 H 2.330996 6.820789 7.084673 H 0.0 **** 0.0
7738 O 38.914885 41.35797 17.033715 O 0.0 **** 0.0
7739 H 38.792638 40.914801 16.145615 H 0.0 **** 0.0
7740 H 39.201894 42.306037 16.896389 H 0.0 **** 0.0
7741 O 10.472526 10.265411 43.837598 O 0.0 **** 0.0
7742 H 11.079528 9.974457 44.577163 H 0.0 **** 0.0
7743 H 10.960731 10.896197 43.234416 H 0.0 **** 0.0
7744 O 43.437891 35.583876 16.212561 O 0.0 **** 0.0
7745 H 44.243949 36.175272 16.23672 H 0.0 **** 0.0
7746 H 43.193095 35.315909 17.144404 H 0.0 **** 0.0
7747 O 40.646951 33.722438 6.194621 O 0.0 **** 0.0
7748 H 40.543376 34.712742 6.101709 H 0.0 **** 0.0
7749 H 41.618505 33.486019 6.178758 H 0.0 **** 0.0
7750 O 6.754077 2.017286 47.945936 O 0.0 **** 0.0
7751 H 6.936618 1.319345 47.253389 H 0.0 **** 0.0
7752 H 5.769131 2.180684 48.002894 H 0.0 **** 0.0
7753 O 1.890218 39.96525 10.080557 O 0.0 **** 0.0
7754 H 2.760384 40.103941 10.553462 H 0.0 **** 0.0
7755 H 2.015642 39.30729 9.33798 H 0.0 **** 0.0
7756 O 7.479951 1.410247 27.000525 O 0.0 **** 0.0
7757 H 6.889723 1.660539 26.233031 H 0.0 **** 0.0
7758 H 6.999401 1.582388 27.860468 H 0.0 **** 0.0
7759 O 45.910234 34.05509 31.184435 O 0.0 **** 0.0
7760 H 46.368885 34.91164 31.421128 H 0.0 **** 0.0
7761 H 44.943125 34.115534 31.431638 H 0.0 **** 0.0
7762 O 46.323459 4.193693 21.847562 O 0.0 **** 0.0
7763 H 46.966036 4.95194 21.9581 H 0.0 **** 0.0
7764 H 46.823919 3.328008 21.861469 H 0.0 **** 0.0
7765 O 9.621241 34.251503 33.171347 O 0.0 **** 0.0
7766 H 9.403309 34.560886 32.245685 H 0.0 **** 0.0
7767 H 10.024066 35.006456 33.688882 H 0.0 **** 0.0
7768 O 30.411156 8.925746 13.088824 O 0.0 **** 0.0
7769 H 30.40851 9.721453 12.483096 H 0.0 **** 0.0
7770 H 30.686997 9.207428 14.007862 H 0.0 **** 0.0
7771 O 47.037153 33.304184 13.274199 O 0.0 **** 0.0
7772 H 46.778094 32.766984 12.471474 H 0.0 **** 0.0
7773 H 46.912576 34.276954 13.078593 H 0.0 **** 0.0
7774 O 23.876828 40.539388 47.50146 O 0.0 **** 0.0
7775 H 24.335089 40.127264 46.713923 H 0.0 **** 0.0
7776 H 23.563847 41.458397 47.261609 H 0.0 **** 0.0
7777 O 1.442404 27.452007 38.150988 O 0.0 **** 0.0
7778 H 0.770554 27.380045 38.888214 H 0.0 **** 0.0
7779 H 1.419888 28.375753 37.768562 H 0.0 **** 0.0
7780 O 1.584311 26.951728 3.054246 O 0.0 **** 0.0
7781 H 1.120198 26.180816 2.617945 H 0.0 **** 0.0
7782 H 2.569555 26.781242 3.071312 H 0.0 **** 0.0
7783 O 12.63477 47.758413 13.354728 O 0.0 **** 0.0
7784 H 12.973415 47.606522 12.426121 H 0.0 **** 0.0
7785 H 11.664517 47.998215 13.320576 H 0.0 **** 0.0
7786 O 13.939624 33.962372 42.44131 O 0.0 **** 0.0
7787 H 13.212023 33.278921 42.500932 H 0.0 **** 0.0
7788 H 14.813331 33.541101 42.684679 H 0.0 **** 0.0
7789 O 41.449481 30.293041 2.076078 O 0.0 **** 0.0
7790 H 42.249609 30.872783 1.921946 H 0.0 **** 0.0
7791 H 40.906154 30.667772 2.827368 H 0.0 **** 0.0
7792 O 21.756768 41.461017 20.043082 O 0.0 **** 0.0
7793 H 21.962301 40.881458 20.831709 H 0.0 **** 0.0
7794 H 20.787709 41.707714 20.054327 H 0.0 **** 0.0
7795 O 13.543837 40.210351 1.382398 O 0.0 **** 0.0
7796 H 12.900817 40.914347 1.080773 H 0.0 **** 0.0
7797 H 13.039348 39.456636 1.803667 H 0.0 **** 0.0
7798 O 25.913549 24.860593 9.270525 O 0.0 **** 0.0
7799 H 25.918405 25.005983 8.281131 H 0.0 **** 0.0
7800 H 25.395438 24.032076 9.483087 H 0.0 **** 0.0
7801 O 29.178866 9.858608 17.720265 O 0.0 **** 0.0
7802 H 28.370837 10.415827 17.528799 H 0.0 **** 0.0
7803 H 28.917266 8.89414 17.758085 H 0.0 **** 0.0
7804 O 21.009654 9.70217 44.648676 O 0.0 **** 0.0
7805 H 21.266262 10.62811 44.925896 H 0.0 **** 0.0
7806 H 21.819414 9.216371 44.319509 H 0.0 **** 0.0
7807 O 24.504501 40.500764 17.625599 O 0.0 **** 0.0
7808 H 24.111191 40.788409 18.498886 H 0.0 **** 0.0
7809 H 25.296158 41.073211 17.41195 H 0.0 **** 0.0
7810 O 41.108133 10.19638 5.610857 O 0.0 **** 0.0
7811 H 41.605909 9.345019 5.776586 H 0.0 **** 0.0
7812 H 40.163485 10.096377 5.923432 H 0.0 **** 0.0
7813 O 25.556972 6.601485 10.787414 O 0.0 **** 0.0
7814 H 26.524696 6.800118 10.632112 H 0.0 **** 0.0
7815 H 25.46727 5.713813 11.239139 H 0.0 **** 0.0
7816 O 21.529985 41.590614 35.350433 O 0.0 **** 0.0
7817 H 21.831404 40.951954 36.058475 H 0.0 **** 0.0
7818 H 21.333017 41.086939 34.509257 H 0.0 **** 0.0
7819 O 6.178727 4.579411 40.178619 O 0.0 **** 0.0
7820 H 5.248685 4.288887 39.953495 H 0.0 **** 0.0
7821 H 6.824316 3.861255 39.918754 H 0.0 **** 0.0
7822 O 3.524596 4.104789 35.683476 O 0.0 **** 0.0
7823 H 3.60746 5.031501 35.316868 H 0.0 **** 0.0
7824 H 4.288618 3.921585 36.302159 H 0.0 **** 0.0
7825 O 17.418734 39.656584 1.597682 O 0.0 **** 0.0
7826 H 16.58106 40.122502 1.882789 H 0.0 **** 0.0
7827 H 17.229329 38.684166 1.46133 H 0.0 **** 0.0
7828 O 29.092643 15.816333 48.02882 O 0.0 **** 0.0
7829 H 28.67077 16.699038 47.821654 H 0.0 **** 0.0
7830 H 29.564759 15.473764 47.216529 H 0.0 **** 0.0
7831 O 29.136735 39.973057 47.88686 O 0.0 **** 0.0
7832 H 28.477356 39.222474 47.843169 H 0.0 **** 0.0
7833 H 28.649195 40.838776 48.000429 H 0.0 **** 0.0
7834 O 45.823032 20.81567 28.719203 O 0.0 **** 0.0
7835 H 45.032236 21.418822 28.823661 H 0.0 **** 0.0
7836 H 46.589291 21.333616 28.338884 H 0.0 **** 0.0
7837 O 7.369871 48.000672 24.766551 O 0.0 **** 0.0
7838 H 8.349198 47.800352 24.795765 H 0.0 **** 0.0
7839 H 6.880739 47.217224 24.383117 H 0.0 **** 0.0
7840 O 33.807446 27.08476 22.491595 O 0.0 **** 0.0
7841 H 34.347125 26.265509 22.29759 H 0.0 **** 0.0
7842 H 32.853507 26.826837 22.645018 H 0.0 **** 0.0
7843 O 22.461155 37.688922 2.926754 O 0.0 **** 0.0
7844 H 22.655364 36.708154 2.947725 H 0.0 **** 0.0
7845 H 23.31904 38.199804 2.982385 H 0.0 **** 0.0
7846 O 7.407168 29.776748 2.837775 O 0.0 **** 0.0
7847 H 6.835383 29.143123 3.358971 H 0.0 **** 0.0
7848 H 8.199095 29.2875 2.472329 H 0.0 **** 0.0
7849 O 42.011434 21.383516 39.734415 O 0.0 **** 0.0
7850 H 41.829903 22.366855 39.746807 H 0.0 **** 0.0
7851 H 42.312603 21.111704 38.82037 H 0.0 **** 0.0
7852 O 1.41723 23.836827 22.936884 O 0.0 **** 0.0
7853 H 0.55989 23.367769 22.724717 H 0.0 **** 0.0
7854 H 2.178398 23.193519 22.854168 H 0.0 **** 0.0
7855 O 42.669632 19.863903 8.52923 O 0.0 **** 0.0
7856 H 42.839183 19.151424 7.848283 H 0.0 **** 0.0
7857 H 41.831896 19.651467 9.032352 H 0.0 **** 0.0
7858 O 29.684295 28.311515 14.305675 O 0.0 **** 0.0
7859 H 28.843451 28.317958 13.764377 H 0.0 **** 0.0
7860 H 29.9159 29.24698 14.572746 H 0.0 **** 0.0
7861 O 13.648374 11.262548 14.845627 O 0.0 **** 0.0
7862 H 14.61107 11.521931 14.92309 H 0.0 **** 0.0
7863 H 13.582767 10.304518 14.566455 H 0.0 **** 0.0
7864 O 17.275308 20.711392 4.873534 O 0.0 **** 0.0
7865 H 16.937703 20.150009 4.117931 H 0.0 **** 0.0
7866 H 18.120945 21.168223 4.597374 H 0.0 **** 0.0
7867 O 12.132595 12.699923 4.087938 O 0.0 **** 0.0
7868 H 11.482957 11.943624 4.165685 H 0.0 **** 0.0
7869 H 11.719934 13.53295 4.456504 H 0.0 **** 0.0
7870 O 5.037011 30.290584 37.568725 O 0.0 **** 0.0
7871 H 4.190613 30.81978 37.628938 H 0.0 **** 0.0
7872 H 5.566575 30.597754 36.777985 H 0.0 **** 0.0
7873 O 4.657294 22.883394 18.675675 O 0.0 **** 0.0
7874 H 3.86514 22.993602 18.075334 H 0.0 **** 0.0
7875 H 4.494797 22.1241 19.305858 H 0.0 **** 0.0
7876 O 21.072431 29.772273 23.237732 O 0.0 **** 0.0
7877 H 20.749307 29.984663 24.159981 H 0.0 **** 0.0
7878 H 20.383496 29.226536 22.760655 H 0.0 **** 0.0
7879 O 9.320397 32.390718 25.785702 O 0.0 **** 0.0
7880 H 8.665101 31.688415 25.507457 H 0.0 **** 0.0
7881 H 10.179651 32.259439 25.291222 H 0.0 **** 0.0
7882 O 46.752037 9.696107 3.569456 O 0.0 **** 0.0
7883 H 46.200496 10.505184 3.772581 H 0.0 **** 0.0
7884 H 47.611151 9.741842 4.079254 H 0.0 **** 0.0
7885 O 46.953055 30.853116 28.22495 O 0.0 **** 0.0
7886 H 47.473996 31.049951 29.055576 H 0.0 **** 0.0
7887 H 47.448408 31.20349 27.430012 H 0.0 **** 0.0
7888 O 12.300372 39.981443 6.328996 O 0.0 **** 0.0
7889 H 12.094357 39.044245 6.047427 H 0.0 **** 0.0
7890 H 11.717987 40.617271 5.822425 H 0.0 **** 0.0
7891 O 0.495131 11.751069 33.945345 O 0.0 **** 0.0
7892 H 0.017317 11.137935 33.316199 H 0.0 **** 0.0
7893 H 0.000147 11.789626 34.813428 H 0.0 **** 0.0
7894 O 38.184508 6.123666 47.898789 O 0.0 **** 0.0
7895 H 37.829714 5.19456 48.003417 H 0.0 **** 0.0
7896 H 37.436688 6.779558 48.001911 H 0.0 **** 0.0
7897 O 23.837388 27.336213 26.802465 O 0.0 **** 0.0
7898 H 24.075871 28.306315 26.8482 H 0.0 **** 0.0
7899 H 24.570007 26.793208 27.212925 H 0.0 **** 0.0
7900 O 28.134351 10.913363 22.249748 O 0.0 **** 0.0
7901 H 28.273291 10.109526 21.671297 H 0.0 **** 0.0
7902 H 27.314758 11.40185 21.95023 H 0.0 **** 0.0
7903 O 21.31393 47.957629 12.020259 O 0.0 **** 0.0
7904 H 21.885637 47.293075 11.539029 H 0.0 **** 0.0
7905 H 20.471973 47.513203 12.326295 H 0.0 **** 0.0
7906 O 7.082515 24.738388 18.88749 O 0.0 **** 0.0
7907 H 6.457411 24.034006 19.223875 H 0.0 **** 0.0
7908 H 7.912996 24.306484 18.535603 H 0.0 **** 0.0
7909 O 47.544776 27.78692 8.008114 O 0.0 **** 0.0
7910 H 47.998095 28.677939 8.033604 H 0.0 **** 0.0
7911 H 48.001381 27.162442 8.641835 H 0.0 **** 0.0
7912 O 41.906385 30.185584 34.172437 O 0.0 **** 0.0
7913 H 41.831453 30.8809 33.457606 H 0.0 **** 0.0
7914 H 41.114153 30.245277 34.779783 H 0.0 **** 0.0
7915 O 29.080478 37.878097 21.945776 O 0.0 **** 0.0
7916 H 29.695065 38.528352 22.392447 H 0.0 **** 0.0
7917 H 28.261905 38.357078 21.628636 H 0.0 **** 0.0
7918 O 1.769385 24.043091 28.742965 O 0.0 **** 0.0
7919 H 2.56253 24.588842 28.472521 H 0.0 **** 0.0
7920 H 1.399322 24.39608 29.602334 H 0.0 **** 0.0
7921 O 5.298993 24.60393 36.285883 O 0.0 **** 0.0
7922 H 5.439642 25.370624 36.912351 H 0.0 **** 0.0
7923 H 4.410059 24.183552 36.467932 H 0.0 **** 0.0
7924 O 40.083104 8.111128 20.048308 O 0.0 **** 0.0
7925 H 40.284821 9.089532 20.094128 H 0.0 **** 0.0
7926 H 40.939362 7.595014 20.025699 H 0.0 **** 0.0
7927 O 11.700504 3.639112 12.087052 O 0.0 **** 0.0
7928 H 11.00772 4.359087 12.128873 H 0.0 **** 0.0
7929 H 11.253036 2.744873 12.10016 H 0.0 **** 0.0
7930 O 25.09784 28.071047 23.008137 O 0.0 **** 0.0
7931 H 26.083295 27.949445 23.127108 H 0.0 **** 0.0
7932 H 24.615813 27.285813 23.396881 H 0.0 **** 0.0
7933 O 23.584853 3.258217 34.844202 O 0.0 **** 0.0
7934 H 22.862451 3.949728 34.847501 H 0.0 **** 0.0
7935 H 24.476367 3.707859 34.788635 H 0.0 **** 0.0
7936 O 27.852046 36.141017 20.026778 O 0.0 **** 0.0
7937 H 27.893117 36.275943 21.016814 H 0.0 **** 0.0
7938 H 27.843018 35.161808 19.823968 H 0.0 **** 0.0
7939 O 24.662638 14.06302 11.610547 O 0.0 **** 0.0
7940 H 25.453346 13.877919 11.026953 H 0.0 **** 0.0
7941 H 24.600783 15.045562 11.786187 H 0.0 **** 0.0
7942 O 17.339174 2.606838 22.141564 O 0.0 **** 0.0
7943 H 16.366948 2.802514 22.012914 H 0.0 **** 0.0
7944 H 17.526673 1.660966 21.876548 H 0.0 **** 0.0
7945 O 36.219344 18.1506 23.550374 O 0.0 **** 0.0
7946 H 36.122505 17.176256 23.347052 H 0.0 **** 0.0
7947 H 35.454088 18.652775 23.14755 H 0.0 **** 0.0
7948 O 5.935912 18.165527 23.418262 O 0.0 **** 0.0
7949 H 6.143425 18.621095 24.283975 H 0.0 **** 0.0
7950 H 5.14993 18.609575 22.988011 H 0.0 **** 0.0
7951 O 26.179579 15.119489 0.036431 O 0.0 **** 0.0
7952 H 25.18282 15.047319 0.072857 H 0.0 **** 0.0
7953 H 26.442764 16.083528 -0.001313 H 0.0 **** 0.0
7954 O 33.941673 11.108144 36.335138 O 0.0 **** 0.0
7955 H 33.385171 11.762537 35.823144 H 0.0 **** 0.0
7956 H 33.515603 10.204353 36.294035 H 0.0 **** 0.0
7957 O 36.677419 31.506656 0.858563 O 0.0 **** 0.0
7958 H 36.005221 31.225487 1.543513 H 0.0 **** 0.0
7959 H 36.210186 31.716895 -0.000248 H 0.0 **** 0.0
7960 O 3.612373 41.714236 16.764881 O 0.0 **** 0.0
7961 H 2.914951 41.849216 17.46876 H 0.0 **** 0.0
7962 H 3.364341 40.930063 16.196009 H 0.0 **** 0.0
7963 O 45.006374 13.458696 19.804673 O 0.0 **** 0.0
7964 H 45.498463 13.935978 19.076584 H 0.0 **** 0.0
7965 H 44.376305 12.794976 19.401495 H 0.0 **** 0.0
7966 O 29.461917 25.280407 24.773108 O 0.0 **** 0.0
7967 H 29.693814 26.056537 24.186671 H 0.0 **** 0.0
7968 H 29.782694 24.433961 24.348027 H 0.0 **** 0.0
7969 O 1.363242 44.239339 16.521985 O 0.0 **** 0.0
7970 H 0.704442 43.492069 16.609353 H 0.0 **** 0.0
7971 H 1.851584 44.153278 15.653551 H 0.0 **** 0.0
7972 O 24.954454 44.692949 37.867616 O 0.0 **** 0.0
7973 H 25.707871 45.350048 37.893018 H 0.0 **** 0.0
7974 H 24.088471 45.182604 37.765762 H 0.0 **** 0.0
7975 O 35.142204 27.080143 0.420111 O 0.0 **** 0.0
7976 H 34.42262 26.905622 1.092275 H 0.0 **** 0.0
7977 H 35.982099 26.616984 0.70317 H 0.0 **** 0.0
7978 O 12.88449 6.550401 5.955209 O 0.0 **** 0.0
7979 H 11.957014 6.209606 5.801226 H 0.0 **** 0.0
7980 H 13.227777 6.973086 5.116428 H 0.0 **** 0.0
7981 O 4.273825 31.95657 35.63032 O 0.0 **** 0.0
7982 H 4.08696 32.78883 35.108316 H 0.0 **** 0.0
7983 H 3.462014 31.372599 35.628338 H 0.0 **** 0.0
7984 O 21.381391 21.822281 28.256701 O 0.0 **** 0.0
7985 H 21.886471 22.676385 28.13235 H 0.0 **** 0.0
7986 H 21.976983 21.142087 28.6841 H 0.0 **** 0.0
7987 O 31.557861 7.3115 25.203515 O 0.0 **** 0.0
7988 H 32.446122 7.396571 24.752053 H 0.0 **** 0.0
7989 H 31.646268 6.718599 26.003962 H 0.0 **** 0.0
7990 O 41.26193 24.589078 1.162782 O 0.0 **** 0.0
7991 H 42.068693 24.048399 1.401241 H 0.0 **** 0.0
7992 H 41.546444 25.504718 0.878672 H 0.0 **** 0.0
7993 O 32.857128 18.315199 45.432765 O 0.0 **** 0.0
7994 H 32.489456 18.117313 46.341457 H 0.0 **** 0.0
7995 H 33.819357 18.575754 45.51207 H 0.0 **** 0.0
7996 O 0.403841 21.189366 12.804551 O 0.0 **** 0.0
7997 H 0.038996 22.00491 13.253816 H 0.0 **** 0.0
7998 H 0.781024 20.570069 13.493221 H 0.0 **** 0.0
7999 O 24.130468 29.653675 20.493977 O 0.0 **** 0.0
8000 H 23.161086 29.865957 20.370292 H 0.0 **** 0.0
8001 H 24.226971 28.909519 21.155024 H 0.0 **** 0.0
8002 O 12.841174 8.850437 33.940703 O 0.0 **** 0.0
8003 H 12.308876 9.572799 34.382196 H 0.0 **** 0.0
8004 H 13.530706 8.507314 34.578571 H 0.0 **** 0.0
8005 O 34.258409 8.085704 8.467204 O 0.0 **** 0.0
8006 H 35.235964 7.951124 8.62949 H 0.0 **** 0.0
8007 H 33.782643 7.210337 8.553472 H 0.0 **** 0.0
8008 O 23.044205 13.870586 13.838724 O 0.0 **** 0.0
8009 H 23.120207 14.301511 14.737941 H 0.0 **** 0.0
8010 H 23.920735 13.457114 13.592149 H 0.0 **** 0.0
8011 O 37.80736 2.000524 38.723421 O 0.0 **** 0.0
8012 H 38.196204 1.15047 38.368074 H 0.0 **** 0.0
8013 H 36.934225 2.182304 38.271035 H 0.0 **** 0.0
8014 O 22.512001 23.666577 15.644394 O 0.0 **** 0.0
8015 H 22.774713 22.92945 15.021747 H 0.0 **** 0.0
8016 H 21.826371 24.246302 15.20406 H 0.0 **** 0.0
8017 O 29.43226 21.266054 31.825202 O 0.0 **** 0.0
8018 H 29.092926 21.957737 31.187636 H 0.0 **** 0.0
8019 H 30.271229 20.860878 31.461848 H 0.0 **** 0.0
8020 O 12.172932 36.012772 44.308793 O 0.0 **** 0.0
8021 H 13.063263 35.665865 44.013788 H 0.0 **** 0.0
8022 H 12.293732 36.892668 44.768415 H 0.0 **** 0.0
8023 O 34.537343 43.637121 2.052685 O 0.0 **** 0.0
8024 H 34.578602 42.649771 2.205986 H 0.0 **** 0.0
8025 H 35.070435 44.106274 2.756795 H 0.0 **** 0.0
8026 O 27.995971 30.146457 33.371117 O 0.0 **** 0.0
8027 H 27.10299 29.696329 33.365268 H 0.0 **** 0.0
8028 H 27.869318 31.137603 33.411759 H 0.0 **** 0.0
8029 O 45.780698 21.755933 22.030973 O 0.0 **** 0.0
8030 H 45.256497 22.18161 21.293357 H 0.0 **** 0.0
8031 H 45.222346 21.055287 22.47527 H 0.0 **** 0.0
8032 O 33.081072 29.781191 32.092492 O 0.0 **** 0.0
8033 H 33.95089 29.291307 32.1516 H 0.0 **** 0.0
8034 H 32.556476 29.436156 31.314152 H 0.0 **** 0.0
8035 O 3.413193 9.268433 10.531151 O 0.0 **** 0.0
8036 H 2.69569 8.777111 10.037334 H 0.0 **** 0.0
8037 H 4.248779 8.719066 10.538568 H 0.0 **** 0.0
8038 O 12.1398 25.736216 20.633905 O 0.0 **** 0.0
8039 H 12.317989 24.796174 20.924822 H 0.0 **** 0.0
8040 H 11.409394 26.125913 21.194893 H 0.0 **** 0.0
8041 O 12.769503 9.77692 36.68698 O 0.0 **** 0.0
8042 H 13.550823 10.064152 36.132814 H 0.0 **** 0.0
8043 H 12.573814 10.475961 37.374811 H 0.0 **** 0.0
8044 O 41.927482 41.048214 32.459565 O 0.0 **** 0.0
8045 H 42.269687 40.274361 31.926544 H 0.0 **** 0.0
8046 H 42.698332 41.597522 32.78223 H 0.0 **** 0.0
8047 O 21.251074 46.230994 18.114806 O 0.0 **** 0.0
8048 H 21.996741 46.102549 17.460937 H 0.0 **** 0.0
8049 H 20.386801 46.324628 17.62051 H 0.0 **** 0.0
8050 O 1.627555 31.879075 41.165974 O 0.0 **** 0.0
8051 H 1.502396 32.698212 40.606141 H 0.0 **** 0.0
8052 H 1.239605 32.033915 42.074589 H 0.0 **** 0.0
8053 O 0.539048 21.882602 30.392118 O 0.0 **** 0.0
8054 H -0.000103 22.581332 29.921846 H 0.0 **** 0.0
8055 H 9.4e-05 21.044109 30.472876 H 0.0 **** 0.0
8056 O 22.299597 32.690318 23.813954 O 0.0 **** 0.0
8057 H 21.636927 32.399165 23.12391 H 0.0 **** 0.0
8058 H 23.043241 32.023579 23.864117 H 0.0 **** 0.0
8059 O 39.103775 10.235804 37.614599 O 0.0 **** 0.0
8060 H 39.556403 10.54238 36.77722 H 0.0 **** 0.0
8061 H 38.112182 10.284268 37.494363 H 0.0 **** 0.0
8062 O 47.324056 38.657362 30.393629 O 0.0 **** 0.0
8063 H 47.651135 39.560232 30.67275 H 0.0 **** 0.0
8064 H 47.999627 37.965053 30.647349 H 0.0 **** 0.0
8065 O 35.345065 28.197061 24.904493 O 0.0 **** 0.0
8066 H 34.552124 28.282376 25.507841 H 0.0 **** 0.0
8067 H 35.377847 28.980907 24.284352 H 0.0 **** 0.0
8068 O 1.44432 41.746541 3.813418 O 0.0 **** 0.0
8069 H 2.430221 41.910055 3.777014 H 0.0 **** 0.0
8070 H 1.175666 41.158307 3.050615 H 0.0 **** 0.0
8071 O 2.319922 29.109844 47.548903 O 0.0 **** 0.0
8072 H 1.595144 29.62166 48.01021 H 0.0 **** 0.0
8073 H 3.180606 29.614178 47.619133 H 0.0 **** 0.0
8074 O 25.9483 45.949757 27.748118 O 0.0 **** 0.0
8075 H 26.350824 46.854986 27.884493 H 0.0 **** 0.0
8076 H 24.960841 46.040203 27.618476 H 0.0 **** 0.0
8077 O 43.882763 10.965755 16.206502 O 0.0 **** 0.0
8078 H 44.528878 11.312673 16.886388 H 0.0 **** 0.0
8079 H 44.290085 10.189477 15.725312 H 0.0 **** 0.0
8080 O 35.550389 40.916835 8.693229 O 0.0 **** 0.0
8081 H 34.573172 40.715907 8.624396 H 0.0 **** 0.0
8082 H 36.07522 40.148692 8.326388 H 0.0 **** 0.0
8083 O 37.020981 45.880706 14.936423 O 0.0 **** 0.0
8084 H 36.663722 45.473241 14.095946 H 0.0 **** 0.0
8085 H 36.325428 45.830091 15.653156 H 0.0 **** 0.0
8086 O 45.703251 21.233424 41.816344 O 0.0 **** 0.0
8087 H 46.022152 21.954632 41.201345 H 0.0 **** 0.0
8088 H 46.332479 20.457296 41.774381 H 0.0 **** 0.0
8089 O 4.206391 41.189935 35.338927 O 0.0 **** 0.0
8090 H 4.201952 41.770646 36.153064 H 0.0 **** 0.0
8091 H 4.479081 40.261944 35.592967 H 0.0 **** 0.0
8092 O 14.536757 11.391184 28.965255 O 0.0 **** 0.0
8093 H 14.361538 10.406625 28.963125 H 0.0 **** 0.0
8094 H 13.688317 11.88112 28.76482 H 0.0 **** 0.0
8095 O 38.291015 2.978017 34.476671 O 0.0 **** 0.0
8096 H 38.837374 3.815603 34.478982 H 0.0 **** 0.0
8097 H 37.319542 3.213875 34.450707 H 0.0 **** 0.0
8098 O 46.304027 14.259828 43.582991 O 0.0 **** 0.0
8099 H 46.676388 14.660535 44.420156 H 0.0 **** 0.0
8100 H 45.324996 14.455734 43.526575 H 0.0 **** 0.0
8101 O 40.207848 22.778589 2.879976 O 0.0 **** 0.0
8102 H 39.987061 22.965751 1.922748 H 0.0 **** 0.0
8103 H 39.364186 22.610174 3.389813 H 0.0 **** 0.0
8104 O 12.766412 26.240676 7.349188 O 0.0 **** 0.0
8105 H 12.840831 25.622099 6.566956 H 0.0 **** 0.0
8106 H 12.862914 27.185824 7.037026 H 0.0 **** 0.0
8107 O 37.515559 38.759098 10.487906 O 0.0 **** 0.0
8108 H 37.715839 37.793397 10.322461 H 0.0 **** 0.0
8109 H 36.616311 38.982196 10.111551 H 0.0 **** 0.0
8110 O 36.808124 0.980734 14.725112 O 0.0 **** 0.0
8111 H 36.363593 1.512541 15.44597 H 0.0 **** 0.0
8112 H 37.799986 1.086553 14.796356 H 0.0 **** 0.0
8113 O 32.642492 29.327857 20.930508 O 0.0 **** 0.0
8114 H 31.659458 29.432351 20.779549 H 0.0 **** 0.0
8115 H 33.071004 30.230447 20.9726 H 0.0 **** 0.0
8116 O 18.197218 24.659799 9.479381 O 0.0 **** 0.0
8117 H 18.104156 24.578565 10.471754 H 0.0 **** 0.0
8118 H 18.380909 23.758497 9.086984 H 0.0 **** 0.0
8119 O 30.115681 19.465085 11.1071 O 0.0 **** 0.0
8120 H 30.451222 19.62492 12.035501 H 0.0 **** 0.0
8121 H 30.838146 19.680218 10.449966 H 0.0 **** 0.0
8122 O 19.920854 30.935766 10.789185 O 0.0 **** 0.0
8123 H 18.937755 30.753202 10.804964 H 0.0 **** 0.0
8124 H 20.076167 31.923519 10.772343 H 0.0 **** 0.0
8125 O 21.089887 43.536819 26.325806 O 0.0 **** 0.0
8126 H 21.356104 42.801589 25.702406 H 0.0 **** 0.0
8127 H 21.79682 44.24414 26.328109 H 0.0 **** 0.0
8128 O 47.319099 35.475947 44.341349 O 0.0 **** 0.0
8129 H 46.926027 34.823934 43.692937 H 0.0 **** 0.0
8130 H 46.602464 35.810482 44.953382 H 0.0 **** 0.0
8131 O 36.252372 28.530965 45.786102 O 0.0 **** 0.0
8132 H 37.115807 28.125548 45.485804 H 0.0 **** 0.0
8133 H 35.654631 27.814096 46.145085 H 0.0 **** 0.0
8134 O 40.104629 30.43273 24.120959 O 0.0 **** 0.0
8135 H 40.740968 30.563269 23.360632 H 0.0 **** 0.0
8136 H 40.593817 30.044658 24.902085 H 0.0 **** 0.0
8137 O 34.926899 42.774314 0.009679 O 0.0 **** 0.0
8138 H 35.16797 43.743122 -0.048274 H 0.0 **** 0.0
8139 H 33.935565 42.682626 0.104085 H 0.0 **** 0.0
8140 O 9.875211 46.201082 40.957283 O 0.0 **** 0.0
8141 H 9.162349 45.524413 40.772863 H 0.0 **** 0.0
8142 H 10.666536 45.748047 41.367925 H 0.0 **** 0.0
8143 O 7.138094 12.270463 23.066311 O 0.0 **** 0.0
8144 H 7.415801 12.353222 24.023438 H 0.0 **** 0.0
8145 H 6.301744 12.797478 22.915196 H 0.0 **** 0.0
8146 O 37.12125 47.312558 25.299266 O 0.0 **** 0.0
8147 H 36.765313 47.291635 26.233576 H 0.0 **** 0.0
8148 H 36.492575 47.825314 24.714533 H 0.0 **** 0.0
8149 O 16.330065 47.090489 4.633008 O 0.0 **** 0.0
8150 H 15.637891 47.810506 4.582669 H 0.0 **** 0.0
8151 H 17.227928 47.501754 4.790381 H 0.0 **** 0.0
8152 O 4.019068 8.146467 14.588602 O 0.0 **** 0.0
8153 H 4.914006 8.591741 14.618261 H 0.0 **** 0.0
8154 H 4.139884 7.153931 14.60701 H 0.0 **** 0.0
8155 O 22.775779 15.465688 27.856555 O 0.0 **** 0.0
8156 H 22.049407 15.852262 27.288218 H 0.0 **** 0.0
8157 H 22.534766 14.530067 28.114606 H 0.0 **** 0.0
8158 O 0.308009 26.462136 6.441241 O 0.0 **** 0.0
8159 H -0.006948 27.344149 6.791839 H 0.0 **** 0.0
8160 H -0.002452 26.348571 5.49743 H 0.0 **** 0.0
8161 O 15.653667 27.943087 6.92841 O 0.0 **** 0.0
8162 H 15.073963 28.371838 6.235461 H 0.0 **** 0.0
8163 H 15.602168 28.468653 7.77764 H 0.0 **** 0.0
8164 O 11.893349 24.035475 36.894622 O 0.0 **** 0.0
8165 H 12.445413 24.804638 37.216613 H 0.0 **** 0.0
8166 H 11.425411 24.292074 36.048895 H 0.0 **** 0.0
8167 O 23.9137 36.42459 17.135653 O 0.0 **** 0.0
8168 H 23.42936 36.883538 16.390774 H 0.0 **** 0.0
8169 H 23.725599 35.443033 17.100618 H 0.0 **** 0.0
8170 O 40.747201 24.246895 40.120185 O 0.0 **** 0.0
8171 H 39.914526 24.616384 40.532729 H 0.0 **** 0.0
8172 H 41.484165 24.91833 40.198436 H 0.0 **** 0.0
8173 O 40.29184 23.870117 25.124084 O 0.0 **** 0.0
8174 H 40.331677 24.862895 25.237523 H 0.0 **** 0.0
8175 H 40.767849 23.428411 25.884593 H 0.0 **** 0.0
8176 O 45.068177 26.869074 11.314811 O 0.0 **** 0.0
8177 H 45.521876 26.732783 12.195518 H 0.0 **** 0.0
8178 H 44.2219 27.383906 11.452019 H 0.0 **** 0.0
8179 O 17.8111 30.060097 0.322747 O 0.0 **** 0.0
8180 H 17.735856 29.614572 1.214884 H 0.0 **** 0.0
8181 H 18.755599 30.001261 -0.000552 H 0.0 **** 0.0
8182 O 12.501815 19.733317 32.489849 O 0.0 **** 0.0
8183 H 13.203876 20.143023 31.907342 H 0.0 **** 0.0
8184 H 12.92624 19.072029 33.108416 H 0.0 **** 0.0
8185 O 38.931736 22.012381 44.848372 O 0.0 **** 0.0
8186 H 39.066814 21.024779 44.928739 H 0.0 **** 0.0
8187 H 39.036361 22.286356 43.89231 H 0.0 **** 0.0
8188 O 21.006384 43.223389 14.072858 O 0.0 **** 0.0
8189 H 21.914569 43.247007 13.654881 H 0.0 **** 0.0
8190 H 20.803385 42.292461 14.376546 H 0.0 **** 0.0
8191 O 41.482208 19.109072 32.441124 O 0.0 **** 0.0
8192 H 40.981801 18.79212 33.246853 H 0.0 **** 0.0
8193 H 42.414173 19.358458 32.704393 H 0.0 **** 0.0
8194 O 13.902227 5.463774 8.111614 O 0.0 **** 0.0
8195 H 13.436448 6.309462 8.372235 H 0.0 **** 0.0
8196 H 13.225361 4.742988 7.962005 H 0.0 **** 0.0
8197 O 17.002894 33.782508 35.225531 O 0.0 **** 0.0
8198 H 16.311195 33.082158 35.401961 H 0.0 **** 0.0
8199 H 16.66775 34.413013 34.525385 H 0.0 **** 0.0
8200 O 23.406596 8.515592 30.165851 O 0.0 **** 0.0
8201 H 23.660245 9.365385 29.703706 H 0.0 **** 0.0
8202 H 24.179433 8.188494 30.709719 H 0.0 **** 0.0
8203 O 21.122184 26.423833 11.815457 O 0.0 **** 0.0
8204 H 21.631969 27.272468 11.95688 H 0.0 **** 0.0
8205 H 21.502408 25.705586 12.398221 H 0.0 **** 0.0
8206 O 10.205099 10.981424 23.075465 O 0.0 **** 0.0
8207 H 10.681645 11.733904 22.620777 H 0.0 **** 0.0
8208 H 10.86276 10.267678 23.316526 H 0.0 **** 0.0
8209 O 34.000414 18.505234 40.989379 O 0.0 **** 0.0
8210 H 33.033551 18.453935 41.239594 H 0.0 **** 0.0
8211 H 34.383433 17.582376 40.948232 H 0.0 **** 0.0
8212 O 6.932375 26.892102 18.469276 O 0.0 **** 0.0
8213 H 7.632447 27.497032 18.089774 H 0.0 **** 0.0
8214 H 6.280558 26.645544 17.752054 H 0.0 **** 0.0
8215 O 7.407982 28.588636 39.09178 O 0.0 **** 0.0
8216 H 8.112964 29.047996 39.632199 H 0.0 **** 0.0
8217 H 7.341386 29.022444 38.193205 H 0.0 **** 0.0
8218 O 13.366071 28.874769 33.242719 O 0.0 **** 0.0
8219 H 13.159475 29.009312 32.273555 H 0.0 **** 0.0
8220 H 12.770444 28.162802 33.614735 H 0.0 **** 0.0
8221 O 1.879479 16.793608 19.883122 O 0.0 **** 0.0
8222 H 1.332444 16.007128 20.16994 H 0.0 **** 0.0
8223 H 1.412514 17.270613 19.138493 H 0.0 **** 0.0
8224 O 47.295127 14.592213 13.149074 O 0.0 **** 0.0
8225 H 47.646947 15.502804 13.36612 H 0.0 **** 0.0
8226 H 47.997247 14.070443 12.664466 H 0.0 **** 0.0
8227 O 43.957628 21.185348 32.41962 O 0.0 **** 0.0
8228 H 44.244696 20.514484 33.10343 H 0.0 **** 0.0
8229 H 44.174976 22.105945 32.744155 H 0.0 **** 0.0
8230 O 1.503297 48.00673 36.720693 O 0.0 **** 0.0
8231 H 1.179894 47.088771 36.490856 H 0.0 **** 0.0
8232 H 2.48815 47.979892 36.892176 H 0.0 **** 0.0
8233 O 21.748841 26.943913 42.756757 O 0.0 **** 0.0
8234 H 21.937418 27.834406 43.170909 H 0.0 **** 0.0
8235 H 20.81392 26.932627 42.401992 H 0.0 **** 0.0
8236 O 23.288177 4.581328 11.645139 O 0.0 **** 0.0
8237 H 23.120557 3.621895 11.871977 H 0.0 **** 0.0
8238 H 22.45544 4.98443 11.265505 H 0.0 **** 0.0
8239 O 18.302691 27.960506 42.53274 O 0.0 **** 0.0
8240 H 18.104622 28.233885 43.474066 H 0.0 **** 0.0
8241 H 19.162815 28.377327 42.238614 H 0.0 **** 0.0
8242 O 33.418266 2.091447 16.651608 O 0.0 **** 0.0
8243 H 33.864122 2.962482 16.857946 H 0.0 **** 0.0
8244 H 32.426352 2.218372 16.643918 H 0.0 **** 0.0
8245 O 1.38409 44.821025 3.290959 O 0.0 **** 0.0
8246 H 2.024922 44.066878 3.147227 H 0.0 **** 0.0
8247 H 1.092035 44.832513 4.247324 H 0.0 **** 0.0
8248 O 2.878692 4.030421 8.523197 O 0.0 **** 0.0
8249 H 2.695339 3.051222 8.435938 H 0.0 **** 0.0
8250 H 2.018212 4.536889 8.467266 H 0.0 **** 0.0
8251 O 28.802717 41.538454 43.588428 O 0.0 **** 0.0
8252 H 29.593326 41.029457 43.928902 H 0.0 **** 0.0
8253 H 28.305875 41.937154 44.359304 H 0.0 **** 0.0
8254 O 14.354411 48.002294 20.734691 O 0.0 **** 0.0
8255 H 13.650623 47.680685 20.101198 H 0.0 **** 0.0
8256 H 14.534274 47.296074 21.419502 H 0.0 **** 0.0
8257 O 28.73621 37.673972 33.798934 O 0.0 **** 0.0
8258 H 27.882332 38.145301 34.019851 H 0.0 **** 0.0
8259 H 28.549228 36.705576 33.633678 H 0.0 **** 0.0
8260 O 1.187076 40.876432 28.632434 O 0.0 **** 0.0
8261 H 0.268811 41.069805 28.978062 H 0.0 **** 0.0
8262 H 1.231256 39.928933 28.315644 H 0.0 **** 0.0
8263 O 37.450179 37.228972 19.719726 O 0.0 **** 0.0
8264 H 37.370037 36.254344 19.928868 H 0.0 **** 0.0
8265 H 36.544717 37.601846 19.516831 H 0.0 **** 0.0
8266 O 42.577272 5.017216 47.588897 O 0.0 **** 0.0
8267 H 42.13355 5.808145 47.167466 H 0.0 **** 0.0
8268 H 43.441939 5.301607 48.003066 H 0.0 **** 0.0
8269 O 17.546084 37.519029 27.552994 O 0.0 **** 0.0
8270 H 16.995064 38.110197 28.142027 H 0.0 **** 0.0
8271 H 17.223905 36.575668 27.632576 H 0.0 **** 0.0
8272 O 35.56788 36.256131 10.996588 O 0.0 **** 0.0
8273 H 35.657812 37.017136 10.354056 H 0.0 **** 0.0
8274 H 36.447523 36.090851 11.442651 H 0.0 **** 0.0
8275 O 23.237304 25.690262 9.639404 O 0.0 **** 0.0
8276 H 24.10622 26.105325 9.369646 H 0.0 **** 0.0
8277 H 23.299142 24.696602 9.545179 H 0.0 **** 0.0
8278 O 1.042393 16.840465 12.633806 O 0.0 **** 0.0
8279 H 0.763688 17.724823 12.259244 H 0.0 **** 0.0
8280 H 0.360031 16.148571 12.397737 H 0.0 **** 0.0
8281 O 2.591127 33.693502 47.435244 O 0.0 **** 0.0
8282 H 2.05765 33.066163 48.002616 H 0.0 **** 0.0
8283 H 2.695051 34.566846 47.911199 H 0.0 **** 0.0
8284 O 26.527397 28.372422 25.35397 O 0.0 **** 0.0
8285 H 26.529506 27.549945 25.922819 H 0.0 **** 0.0
8286 H 25.609778 28.769885 25.346161 H 0.0 **** 0.0
8287 O 35.725421 48.001708 20.92583 O 0.0 **** 0.0
8288 H 35.685154 47.981088 21.924837 H 0.0 **** 0.0
8289 H 36.673877 47.892587 20.628194 H 0.0 **** 0.0
8290 O 33.644413 40.510214 16.084944 O 0.0 **** 0.0
8291 H 33.128494 41.219617 16.565191 H 0.0 **** 0.0
8292 H 33.857835 39.76662 16.718649 H 0.0 **** 0.0
8293 O 39.761859 14.176334 27.655421 O 0.0 **** 0.0
8294 H 40.165698 13.621276 28.382667 H 0.0 **** 0.0
8295 H 39.336278 13.577816 26.976658 H 0.0 **** 0.0
8296 O 1.46711 17.55355 33.743823 O 0.0 **** 0.0
8297 H 0.73804 18.146128 33.401225 H 0.0 **** 0.0
8298 H 1.797759 17.904463 34.619947 H 0.0 **** 0.0
8299 O 39.491377 25.641253 27.371006 O 0.0 **** 0.0
8300 H 39.604017 24.649782 27.304974 H 0.0 **** 0.0
8301 H 40.390418 26.076058 27.423284 H 0.0 **** 0.0
8302 O 19.731551 21.563673 11.865976 O 0.0 **** 0.0
8303 H 20.601001 21.713538 11.395167 H 0.0 **** 0.0
8304 H 19.438363 20.617141 11.731138 H 0.0 **** 0.0
8305 O 7.712361 41.691373 45.650079 O 0.0 **** 0.0
8306 H 8.046868 41.236673 46.475558 H 0.0 **** 0.0
8307 H 6.954176 42.298507 45.888001 H 0.0 **** 0.0
8308 O 21.473243 10.699689 24.886809 O 0.0 **** 0.0
8309 H 21.506168 10.846211 23.898118 H 0.0 **** 0.0
8310 H 21.103484 11.515024 25.33242 H 0.0 **** 0.0
8311 O 20.423092 34.366158 31.096194 O 0.0 **** 0.0
8312 H 21.277188 34.430392 31.612388 H 0.0 **** 0.0
8313 H 19.650255 34.533043 31.708514 H 0.0 **** 0.0
8314 O 26.520397 38.008286 39.607196 O 0.0 **** 0.0
8315 H 27.351473 37.869464 39.068581 H 0.0 **** 0.0
8316 H 26.736435 37.927123 40.580234 H 0.0 **** 0.0
8317 O 10.332615 36.265428 24.830716 O 0.0 **** 0.0
8318 H 9.380054 36.327711 25.128726 H 0.0 **** 0.0
8319 H 10.883712 36.93036 25.33492 H 0.0 **** 0.0
8320 O 10.742617 46.89528 4.779356 O 0.0 **** 0.0
8321 H 10.273102 47.769981 4.899847 H 0.0 **** 0.0
8322 H 10.128275 46.149131 5.036079 H 0.0 **** 0.0
8323 O 20.296787 14.382487 47.433832 O 0.0 **** 0.0
8324 H 19.536835 14.909377 47.81452 H 0.0 **** 0.0
8325 H 20.186561 14.307027 46.442762 H 0.0 **** 0.0
8326 O 14.209072 3.336915 23.28285 O 0.0 **** 0.0
8327 H 13.43166 3.961704 23.209821 H 0.0 **** 0.0
8328 H 15.048836 3.863757 23.414366 H 0.0 **** 0.0
8329 O 41.001172 14.452895 31.988405 O 0.0 **** 0.0
8330 H 40.185288 15.013337 31.845923 H 0.0 **** 0.0
8331 H 40.754396 13.485285 31.934585 H 0.0 **** 0.0
8332 O 41.223317 18.996823 20.731331 O 0.0 **** 0.0
8333 H 41.401293 19.464202 19.865338 H 0.0 **** 0.0
8334 H 40.646016 18.197172 20.565967 H 0.0 **** 0.0
8335 O 4.265494 34.665872 10.328221 O 0.0 **** 0.0
8336 H 4.09345 35.338662 11.047816 H 0.0 **** 0.0
8337 H 4.472156 35.139237 9.471904 H 0.0 **** 0.0
8338 O 30.855642 23.975037 36.587488 O 0.0 **** 0.0
8339 H 30.087044 23.440155 36.938518 H 0.0 **** 0.0
8340 H 30.885679 23.900782 35.59067 H 0.0 **** 0.0
8341 O 41.91187 4.80656 18.376008 O 0.0 **** 0.0
8342 H 41.752582 5.470738 19.106459 H 0.0 **** 0.0
8343 H 41.114168 4.209862 18.288345 H 0.0 **** 0.0
8344 O 11.879412 46.051217 10.312865 O 0.0 **** 0.0
8345 H 12.268191 45.140027 10.176315 H 0.0 **** 0.0
8346 H 10.980162 46.098478 9.877917 H 0.0 **** 0.0
8347 O 1.387067 38.982439 37.327199 O 0.0 **** 0.0
8348 H 0.457984 39.351339 37.2993 H 0.0 **** 0.0
8349 H 2.045489 39.733506 37.277797 H 0.0 **** 0.0
8350 O 33.531993 30.286929 38.87657 O 0.0 **** 0.0
8351 H 33.67648 30.065816 39.841088 H 0.0 **** 0.0
8352 H 32.601923 30.631689 38.74939 H 0.0 **** 0.0
8353 O 0.689143 13.758763 5.027984 O 0.0 **** 0.0
8354 H 1.173435 13.811556 4.154636 H 0.0 **** 0.0
8355 H 0.134905 12.926712 5.051962 H 0.0 **** 0.0
8356 O 41.866634 38.990058 26.431744 O 0.0 **** 0.0
8357 H 42.114864 38.02631 26.333585 H 0.0 **** 0.0
8358 H 42.695853 39.549021 26.436016 H 0.0 **** 0.0
8359 O 39.10288 44.551182 8.468631 O 0.0 **** 0.0
8360 H 38.233893 44.293876 8.891383 H 0.0 **** 0.0
8361 H 39.499615 43.755232 8.011326 H 0.0 **** 0.0
8362 O 7.939893 5.260947 46.860822 O 0.0 **** 0.0
8363 H 6.954891 5.427646 46.906053 H 0.0 **** 0.0
8364 H 8.426831 6.134251 46.877967 H 0.0 **** 0.0
8365 O 33.524414 1.910904 19.068324 O 0.0 **** 0.0
8366 H 33.039033 1.394814 19.774098 H 0.0 **** 0.0
8367 H 34.459004 2.094513 19.373109 H 0.0 **** 0.0
8368 O 32.282812 9.003491 44.519482 O 0.0 **** 0.0
8369 H 32.131061 8.153439 44.015056 H 0.0 **** 0.0
8370 H 31.962441 9.77716 43.9728 H 0.0 **** 0.0
8371 O 2.447693 35.970962 16.340997 O 0.0 **** 0.0
8372 H 1.979347 36.464535 15.608126 H 0.0 **** 0.0
8373 H 2.176873 36.351629 17.225199 H 0.0 **** 0.0
8374 O 26.916181 4.22031 34.021005 O 0.0 **** 0.0
8375 H 26.557681 4.913541 34.646283 H 0.0 **** 0.0
8376 H 26.667482 3.31069 34.353876 H 0.0 **** 0.0
8377 O 17.108374 39.563096 21.673722 O 0.0 **** 0.0
8378 H 17.637989 38.866743 22.158142 H 0.0 **** 0.0
8379 H 17.71976 40.106449 21.098364 H 0.0 **** 0.0
8380 O 2.892514 25.487907 43.269299 O 0.0 **** 0.0
8381 H 2.808693 25.427296 44.263966 H 0.0 **** 0.0
8382 H 3.859961 25.511309 43.017184 H 0.0 **** 0.0
8383 O 7.189788 44.622867 38.872719 O 0.0 **** 0.0
8384 H 6.191631 44.566055 38.895453 H 0.0 **** 0.0
8385 H 7.486014 45.465044 39.323329 H 0.0 **** 0.0
8386 O 30.538807 17.078933 42.809647 O 0.0 **** 0.0
8387 H 29.671738 16.582475 42.851872 H 0.0 **** 0.0
8388 H 31.071078 16.754139 42.027816 H 0.0 **** 0.0
8389 O 18.377238 0.634001 20.126716 O 0.0 **** 0.0
8390 H 18.556943 -0.00413 19.378011 H 0.0 **** 0.0
8391 H 18.225348 1.54981 19.754849 H 0.0 **** 0.0
8392 O 16.250543 20.27219 14.37925 O 0.0 **** 0.0
8393 H 15.840669 19.361059 14.335593 H 0.0 **** 0.0
8394 H 17.126831 20.266865 13.897426 H 0.0 **** 0.0
8395 O 13.400392 39.922766 41.423931 O 0.0 **** 0.0
8396 H 13.830038 39.525331 40.613059 H 0.0 **** 0.0
8397 H 12.447489 39.623975 41.476491 H 0.0 **** 0.0
8398 O 35.687881 20.281536 35.806657 O 0.0 **** 0.0
8399 H 35.137938 20.644143 36.559082 H 0.0 **** 0.0
8400 H 35.716691 19.283663 35.865663 H 0.0 **** 0.0
8401 O 2.680667 22.363327 31.875905 O 0.0 **** 0.0
8402 H 2.993041 21.896506 32.703288 H 0.0 **** 0.0
8403 H 3.412677 22.948478 31.526874 H 0.0 **** 0.0
8404 O 21.241683 15.894293 13.228015 O 0.0 **** 0.0
8405 H 20.271317 15.957374 13.461411 H 0.0 **** 0.0
8406 H 21.433969 14.991372 12.843536 H 0.0 **** 0.0
8407 O 23.803892 11.794142 8.580909 O 0.0 **** 0.0
8408 H 23.044126 11.896958 9.222974 H 0.0 **** 0.0
8409 H 23.459885 11.859985 7.644219 H 0.0 **** 0.0
8410 O 47.999511 30.044192 15.760667 O 0.0 **** 0.0
8411 H 47.855225 30.708057 15.026822 H 0.0 **** 0.0
8412 H 47.750609 30.456743 16.636973 H 0.0 **** 0.0
8413 O 32.542105 18.85403 39.133658 O 0.0 **** 0.0
8414 H 33.408513 18.442578 38.850626 H 0.0 **** 0.0
8415 H 31.829707 18.152409 39.150396 H 0.0 **** 0.0
8416 O 24.141857 7.987159 6.638536 O 0.0 **** 0.0
8417 H 24.98284 7.861145 7.164779 H 0.0 **** 0.0
8418 H 24.368566 8.315366 5.721505 H 0.0 **** 0.0
8419 O 26.977352 10.079864 40.141664 O 0.0 **** 0.0
8420 H 27.052376 10.660299 39.330782 H 0.0 **** 0.0
8421 H 27.788542 10.20033 40.713958 H 0.0 **** 0.0
8422 O 42.099847 22.329911 19.19408 O 0.0 **** 0.0
8423 H 41.744444 23.227898 18.934519 H 0.0 **** 0.0
8424 H 41.400102 21.634493 19.03033 H 0.0 **** 0.0
8425 O 8.110597 27.224508 30.485695 O 0.0 **** 0.0
8426 H 8.668014 26.703327 29.839382 H 0.0 **** 0.0
8427 H 8.490156 28.144131 30.587138 H 0.0 **** 0.0
8428 O 22.346855 9.433305 32.109838 O 0.0 **** 0.0
8429 H 22.176228 8.455457 31.988329 H 0.0 **** 0.0
8430 H 23.33174 9.594275 32.174268 H 0.0 **** 0.0
8431 O 0.403097 10.056706 25.435915 O 0.0 **** 0.0
8432 H 0.440947 9.097576 25.155379 H 0.0 **** 0.0
8433 H 1.131112 10.566883 24.977901 H 0.0 **** 0.0
8434 O 40.227695 2.108097 41.417904 O 0.0 **** 0.0
8435 H 40.863657 1.496067 40.94776 H 0.0 **** 0.0
8436 H 39.597634 2.508906 40.752743 H 0.0 **** 0.0
8437 O 23.001348 11.721337 15.581238 O 0.0 **** 0.0
8438 H 22.28869 12.248647 15.1185 H 0.0 **** 0.0
8439 H 23.899621 12.021942 15.260607 H 0.0 **** 0.0
8440 O 37.167647 13.98589 7.326981 O 0.0 **** 0.0
8441 H 37.284723 14.952986 7.552994 H 0.0 **** 0.0
8442 H 36.470945 13.891823 6.615771 H 0.0 **** 0.0
8443 O 14.272926 30.169391 46.796424 O 0.0 **** 0.0
8444 H 13.795434 29.594095 47.460577 H 0.0 **** 0.0
8445 H 13.64309 30.42445 46.062725 H 0.0 **** 0.0
8446 O 15.780712 10.122831 41.378157 O 0.0 **** 0.0
8447 H 16.299453 10.023252 40.529007 H 0.0 **** 0.0
8448 H 14.968428 9.540594 41.342704 H 0.0 **** 0.0
8449 O 29.992254 36.429575 25.671083 O 0.0 **** 0.0
8450 H 29.59101 36.440071 26.587029 H 0.0 **** 0.0
8451 H 30.965611 36.209558 25.736132 H 0.0 **** 0.0
8452 O 38.168071 14.616549 31.093273 O 0.0 **** 0.0
8453 H 38.554469 13.697572 31.172271 H 0.0 **** 0.0
8454 H 37.611697 14.674018 30.264293 H 0.0 **** 0.0
8455 O 33.306983 7.530548 30.175778 O 0.0 **** 0.0
8456 H 32.673112 7.202904 29.475122 H 0.0 **** 0.0
8457 H 33.438645 6.818372 30.865367 H 0.0 **** 0.0
8458 O 17.979001 35.098114 39.81305 O 0.0 **** 0.0
8459 H 18.015002 35.249364 40.800921 H 0.0 **** 0.0
8460 H 17.903308 35.977928 39.34373 H 0.0 **** 0.0
8461 O 11.486355 13.718481 18.270484 O 0.0 **** 0.0
8462 H 11.194392 14.674894 18.260672 H 0.0 **** 0.0
8463 H 11.489755 13.380705 19.211738 H 0.0 **** 0.0
8464 O 36.366995 18.211388 13.486855 O 0.0 **** 0.0
8465 H 36.259742 17.455599 14.132875 H 0.0 **** 0.0
8466 H 36.685342 19.024212 13.974743 H 0.0 **** 0.0
8467 O 28.347923 7.977902 45.922979 O 0.0 **** 0.0
8468 H 27.630901 8.674942 45.914154 H 0.0 **** 0.0
8469 H 27.929786 7.070045 45.954936 H 0.0 **** 0.0
8470 O 31.916167 26.721062 26.68511 O 0.0 **** 0.0
8471 H 31.34804 27.294901 27.275029 H 0.0 **** 0.0
8472 H 32.76755 27.200981 26.473243 H 0.0 **** 0.0
8473 O 14.148998 24.776066 22.144663 O 0.0 **** 0.0
8474 H 13.839756 23.826247 22.192368 H 0.0 **** 0.0
8475 H 14.538281 24.954827 21.241022 H 0.0 **** 0.0
8476 O 46.72383 31.622655 34.426807 O 0.0 **** 0.0
8477 H 47.080843 32.555263 34.480169 H 0.0 **** 0.0
8478 H 47.485566 30.975458 34.395885 H 0.0 **** 0.0
8479 O 7.645039 45.145714 35.909636 O 0.0 **** 0.0
8480 H 7.363314 45.174307 34.950534 H 0.0 **** 0.0
8481 H 7.504797 46.044474 36.325118 H 0.0 **** 0.0
8482 O 13.357248 34.650748 29.741402 O 0.0 **** 0.0
8483 H 14.212032 35.143186 29.577352 H 0.0 **** 0.0
8484 H 12.626375 35.306135 29.932073 H 0.0 **** 0.0
8485 O 27.476887 37.125319 14.847589 O 0.0 **** 0.0
8486 H 27.269322 36.147079 14.852794 H 0.0 **** 0.0
8487 H 26.62374 37.646996 14.840012 H 0.0 **** 0.0
8488 O 24.760003 46.995626 22.016933 O 0.0 **** 0.0
8489 H 23.844567 47.340168 22.225095 H 0.0 **** 0.0
8490 H 25.42764 47.730686 22.135298 H 0.0 **** 0.0
8491 O 33.524652 42.222515 4.089589 O 0.0 **** 0.0
8492 H 32.725075 42.712306 3.741962 H 0.0 **** 0.0
8493 H 34.225656 42.880954 4.363656 H 0.0 **** 0.0
8494 O 22.17003 5.735675 16.765491 O 0.0 **** 0.0
8495 H 22.332075 4.827659 16.379081 H 0.0 **** 0.0
8496 H 21.338343 5.718104 17.320515 H 0.0 **** 0.0
8497 O 14.075125 8.400351 8.130204 O 0.0 **** 0.0
8498 H 13.362958 9.089257 7.994962 H 0.0 **** 0.0
8499 H 14.967618 8.848814 8.179199 H 0.0 **** 0.0
8500 O 39.679959 32.455777 21.140888 O 0.0 **** 0.0
8501 H 39.272635 32.410919 22.053104 H 0.0 **** 0.0
8502 H 39.288436 31.737732 20.565401 H 0.0 **** 0.0
8503 O 10.7073 16.261858 42.354449 O 0.0 **** 0.0
8504 H 10.76221 15.890106 43.28119 H 0.0 **** 0.0
8505 H 11.089932 15.602194 41.707534 H 0.0 **** 0.0
8506 O 34.199487 3.122253 8.615859 O 0.0 **** 0.0
8507 H 34.382102 2.249892 9.0694 H 0.0 **** 0.0
8508 H 35.006776 3.403529 8.096984 H 0.0 **** 0.0
8509 O 38.483602 26.497479 4.788794 O 0.0 **** 0.0
8510 H 38.943756 25.682319 4.436893 H 0.0 **** 0.0
8511 H 38.328575 26.394648 5.771369 H 0.0 **** 0.0
8512 O 9.720832 43.0916 35.174798 O 0.0 **** 0.0
8513 H 10.33226 42.395184 34.798998 H 0.0 **** 0.0
8514 H 9.265435 43.574109 34.426559 H 0.0 **** 0.0
8515 O 15.106547 6.181213 25.702436 O 0.0 **** 0.0
8516 H 14.165283 6.517195 25.737118 H 0.0 **** 0.0
8517 H 15.104198 5.205123 25.484938 H 0.0 **** 0.0
8518 O 6.509035 31.306468 12.498196 O 0.0 **** 0.0
8519 H 6.836506 32.248683 12.569303 H 0.0 **** 0.0
8520 H 5.890125 31.226826 11.716742 H 0.0 **** 0.0
8521 O 29.101334 10.768864 47.882593 O 0.0 **** 0.0
8522 H 29.055712 9.776944 48.00124 H 0.0 **** 0.0
8523 H 30.054785 11.066716 47.93032 H 0.0 **** 0.0
8524 O 12.924394 6.194032 0.155509 O 0.0 **** 0.0
8525 H 12.113482 6.756267 -0.006895 H 0.0 **** 0.0
8526 H 13.264367 6.359039 1.081389 H 0.0 **** 0.0
8527 O 16.134096 13.933561 48.002574 O 0.0 **** 0.0
8528 H 15.458763 14.438523 47.464986 H 0.0 **** 0.0
8529 H 17.043771 14.073913 47.611605 H 0.0 **** 0.0
8530 O 17.981725 8.352892 39.028411 O 0.0 **** 0.0
8531 H 17.261724 8.676996 38.414719 H 0.0 **** 0.0
8532 H 18.118998 9.018545 39.761981 H 0.0 **** 0.0
8533 O 38.187555 26.614309 48.003449 O 0.0 **** 0.0
8534 H 37.304973 26.737226 47.549573 H 0.0 **** 0.0
8535 H 38.798569 27.365305 47.752987 H 0.0 **** 0.0
8536 O 14.884464 37.378113 2.82411 O 0.0 **** 0.0
8537 H 14.960956 38.141769 2.182985 H 0.0 **** 0.0
8538 H 15.798423 37.09099 3.110996 H 0.0 **** 0.0
8539 O 45.843603 3.15489 12.890154 O 0.0 **** 0.0
8540 H 45.825197 3.122142 11.890828 H 0.0 **** 0.0
8541 H 46.557801 2.54324 13.230549 H 0.0 **** 0.0
8542 O 17.095415 18.57029 40.625215 O 0.0 **** 0.0
8543 H 16.829074 19.143073 41.400485 H 0.0 **** 0.0
8544 H 17.738341 17.869348 40.934066 H 0.0 **** 0.0
8545 O 36.254242 17.275679 47.351002 O 0.0 **** 0.0
8546 H 35.664162 17.635644 46.628302 H 0.0 **** 0.0
8547 H 36.537853 18.022497 47.952575 H 0.0 **** 0.0
8548 O 40.903762 24.481441 29.075864 O 0.0 **** 0.0
8549 H 41.046668 25.412301 29.412227 H 0.0 **** 0.0
8550 H 41.707396 23.924341 29.28533 H 0.0 **** 0.0
8551 O 2.508059 11.887568 37.020432 O 0.0 **** 0.0
8552 H 3.200133 11.1833 36.861989 H 0.0 **** 0.0
8553 H 2.100891 11.757292 37.924481 H 0.0 **** 0.0
8554 O 5.905196 2.864986 37.354533 O 0.0 **** 0.0
8555 H 5.636007 2.85811 38.317629 H 0.0 **** 0.0
8556 H 5.56244 2.039092 36.906783 H 0.0 **** 0.0
8557 O 39.708625 11.740582 3.124244 O 0.0 **** 0.0
8558 H 39.722593 12.739854 3.160623 H 0.0 **** 0.0
8559 H 40.032302 11.370826 3.995207 H 0.0 **** 0.0
8560 O 11.722834 5.034814 1.919399 O 0.0 **** 0.0
8561 H 11.899934 4.050643 1.929679 H 0.0 **** 0.0
8562 H 10.736547 5.196339 1.95419 H 0.0 **** 0.0
8563 O 37.979487 1.148908 46.765852 O 0.0 **** 0.0
8564 H 38.324302 0.211064 46.725667 H 0.0 **** 0.0
8565 H 36.979537 1.136807 46.76169 H 0.0 **** 0.0
8566 O 22.594923 6.010043 3.108202 O 0.0 **** 0.0
8567 H 21.829058 5.445306 3.41575 H 0.0 **** 0.0
8568 H 23.426684 5.455682 3.077856 H 0.0 **** 0.0
8569 O 44.125799 37.575589 23.369292 O 0.0 **** 0.0
8570 H 44.307792 38.335639 22.745381 H 0.0 **** 0.0
8571 H 44.622125 36.764371 23.060022 H 0.0 **** 0.0
8572 O 5.551264 31.236692 42.892995 O 0.0 **** 0.0
8573 H 5.374891 31.643935 41.996831 H 0.0 **** 0.0
8574 H 5.150455 30.321155 42.927728 H 0.0 **** 0.0
8575 O 20.01298 33.03115 16.423657 O 0.0 **** 0.0
8576 H 20.895923 33.130222 16.882635 H 0.0 **** 0.0
8577 H 20.080303 32.322874 15.720893 H 0.0 **** 0.0
8578 O 11.538509 27.821271 5.401824 O 0.0 **** 0.0
8579 H 10.806176 28.12028 6.013662 H 0.0 **** 0.0
8580 H 11.8811 28.605229 4.884037 H 0.0 **** 0.0
8581 O 20.915018 16.467739 46.508425 O 0.0 **** 0.0
8582 H 20.976517 17.375627 46.093672 H 0.0 **** 0.0
8583 H 21.810712 16.203341 46.866042 H 0.0 **** 0.0
8584 O 16.142185 29.025879 15.460538 O 0.0 **** 0.0
8585 H 15.538372 28.248299 15.284916 H 0.0 **** 0.0
8586 H 17.083082 28.775374 15.23245 H 0.0 **** 0.0
8587 O 5.520518 15.865925 9.124371 O 0.0 **** 0.0
8588 H 4.701281 16.407061 8.934408 H 0.0 **** 0.0
8589 H 5.493744 15.021608 8.589137 H 0.0 **** 0.0
8590 O 17.35852 37.112211 45.18273 O 0.0 **** 0.0
8591 H 17.448829 36.172862 44.851778 H 0.0 **** 0.0
8592 H 16.878175 37.661699 44.499068 H 0.0 **** 0.0
8593 O 31.088154 20.67875 41.968579 O 0.0 **** 0.0
8594 H 30.957382 21.399743 42.649116 H 0.0 **** 0.0
8595 H 31.745975 20.009537 42.314249 H 0.0 **** 0.0
8596 O 40.168484 28.938129 18.300123 O 0.0 **** 0.0
8597 H 41.087739 28.547738 18.351381 H 0.0 **** 0.0
8598 H 39.493661 28.20035 18.281193 H 0.0 **** 0.0
8599 O 10.845312 44.610445 2.66355 O 0.0 **** 0.0
8600 H 11.542632 44.243213 2.047961 H 0.0 **** 0.0
8601 H 10.965275 44.217467 3.575274 H 0.0 **** 0.0
8602 O 46.182723 34.755088 6.038929 O 0.0 **** 0.0
8603 H 47.080776 34.381075 6.270614 H 0.0 **** 0.0
8604 H 46.22432 35.754169 6.052011 H 0.0 **** 0.0
8605 O 10.643393 40.606122 43.244517 O 0.0 **** 0.0
8606 H 11.517381 40.145785 43.400395 H 0.0 **** 0.0
8607 H 10.807017 41.570785 43.037838 H 0.0 **** 0.0
8608 O 31.786008 45.457152 39.869176 O 0.0 **** 0.0
8609 H 31.857373 46.313504 40.380675 H 0.0 **** 0.0
8610 H 32.491185 45.432472 39.16053 H 0.0 **** 0.0
8611 O 25.019886 18.647397 13.147857 O 0.0 **** 0.0
8612 H 25.265117 19.039214 12.261063 H 0.0 **** 0.0
8613 H 24.718198 19.376396 13.762355 H 0.0 **** 0.0
8614 O 37.711058 12.759744 45.030851 O 0.0 **** 0.0
8615 H 36.926357 13.345341 45.234282 H 0.0 **** 0.0
8616 H 37.758799 12.021015 45.703208 H 0.0 **** 0.0
8617 O 21.565537 23.406876 33.536589 O 0.0 **** 0.0
8618 H 22.202481 23.223773 32.787697 H 0.0 **** 0.0
8619 H 21.873543 22.930381 34.360087 H 0.0 **** 0.0
8620 O 14.320395 35.500408 1.638627 O 0.0 **** 0.0
8621 H 15.084167 35.212803 2.216553 H 0.0 **** 0.0
8622 H 14.203777 34.846798 0.890792 H 0.0 **** 0.0
8623 O 13.904419 38.534788 0.00345 O 0.0 **** 0.0
8624 H 14.869699 38.273856 -0.011079 H 0.0 **** 0.0
8625 H 13.336737 37.711543 0.011695 H 0.0 **** 0.0
8626 O 3.881536 4.626715 -0.001106 O 0.0 **** 0.0
8627 H 4.829358 4.360078 0.173823 H 0.0 **** 0.0
8628 H 3.802441 5.622748 0.040431 H 0.0 **** 0.0
8629 O 29.832488 32.000472 10.595547 O 0.0 **** 0.0
8630 H 30.411104 32.375283 9.871127 H 0.0 **** 0.0
8631 H 29.288475 32.735043 11.001157 H 0.0 **** 0.0
8632 O 18.716087 45.75817 30.225996 O 0.0 **** 0.0
8633 H 18.145052 44.956716 30.40391 H 0.0 **** 0.0
8634 H 18.175024 46.588791 30.357838 H 0.0 **** 0.0
8635 O 29.470426 13.699552 34.044508 O 0.0 **** 0.0
8636 H 28.578123 14.115181 34.220889 H 0.0 **** 0.0
8637 H 30.123325 14.410411 33.782849 H 0.0 **** 0.0
8638 O 3.505661 33.122839 16.021914 O 0.0 **** 0.0
8639 H 3.696818 34.009038 16.444021 H 0.0 **** 0.0
8640 H 2.851175 33.243469 15.275483 H 0.0 **** 0.0
8641 O 2.085121 33.544925 33.198403 O 0.0 **** 0.0
8642 H 2.159262 33.229117 34.144359 H 0.0 **** 0.0
8643 H 2.925462 33.320032 32.705136 H 0.0 **** 0.0
8644 O 13.994274 4.083426 47.984175 O 0.0 **** 0.0
8645 H 13.419375 4.90167 47.989879 H 0.0 **** 0.0
8646 H 14.957249 4.35258 48.001447 H 0.0 **** 0.0
8647 O 41.451125 13.077193 19.678294 O 0.0 **** 0.0
8648 H 41.906369 12.252117 20.013058 H 0.0 **** 0.0
8649 H 40.491509 12.873057 19.484575 H 0.0 **** 0.0
8650 O 8.525608 14.702598 19.85442 O 0.0 **** 0.0
8651 H 7.898013 13.934948 19.984417 H 0.0 **** 0.0
8652 H 9.436701 14.354484 19.633535 H 0.0 **** 0.0
8653 O 41.762465 34.400822 29.646873 O 0.0 **** 0.0
8654 H 41.110449 33.96274 30.26576 H 0.0 **** 0.0
8655 H 42.684805 34.323867 30.025595 H 0.0 **** 0.0
8656 O 8.27612 3.56309 7.105795 O 0.0 **** 0.0
8657 H 7.279853 3.6355 7.15347 H 0.0 **** 0.0
8658 H 8.678209 4.478473 7.127262 H 0.0 **** 0.0
8659 O 5.303289 31.64877 5.384263 O 0.0 **** 0.0
8660 H 5.879069 32.395684 5.051608 H 0.0 **** 0.0
8661 H 5.689836 30.774176 5.091467 H 0.0 **** 0.0
8662 O 41.855709 3.383221 12.932048 O 0.0 **** 0.0
8663 H 41.896028 2.794298 12.124827 H 0.0 **** 0.0
8664 H 42.025185 2.836635 13.75216 H 0.0 **** 0.0
8665 O 41.613031 6.63887 39.536424 O 0.0 **** 0.0
8666 H 42.15807 5.921611 39.102218 H 0.0 **** 0.0
8667 H 42.056439 6.926554 40.385359 H 0.0 **** 0.0
8668 O 36.537305 4.719216 40.98519 O 0.0 **** 0.0
8669 H 36.162197 3.963422 40.44841 H 0.0 **** 0.0
8670 H 37.422111 4.450585 41.366004 H 0.0 **** 0.0
8671 O 30.064086 2.956342 0.806517 O 0.0 **** 0.0
8672 H 31.014266 2.826768 0.522911 H 0.0 **** 0.0
8673 H 29.839639 3.930614 0.784573 H 0.0 **** 0.0
8674 O 28.861144 6.034891 15.981003 O 0.0 **** 0.0
8675 H 28.922329 6.676045 16.746013 H 0.0 **** 0.0
8676 H 28.211465 5.30868 16.205944 H 0.0 **** 0.0
8677 O 43.307293 46.729741 29.094467 O 0.0 **** 0.0
8678 H 43.386926 46.76646 30.090647 H 0.0 **** 0.0
8679 H 42.600818 47.370008 28.792782 H 0.0 **** 0.0
8680 O 19.624827 45.283195 28.280603 O 0.0 **** 0.0
8681 H 19.795371 45.019773 27.331084 H 0.0 **** 0.0
8682 H 20.186461 46.077576 28.512097 H 0.0 **** 0.0
8683 O 46.706657 18.145998 20.550084 O 0.0 **** 0.0
8684 H 47.603745 18.39279 20.916675 H 0.0 **** 0.0
8685 H 46.041627 18.852296 20.792862 H 0.0 **** 0.0
8686 O 28.977311 30.9448 26.162526 O 0.0 **** 0.0
8687 H 28.24639 31.553596 26.471047 H 0.0 **** 0.0
8688 H 29.012995 30.139955 26.75499 H 0.0 **** 0.0
8689 O 19.214688 27.967814 39.911469 O 0.0 **** 0.0
8690 H 19.525644 28.519222 39.137313 H 0.0 **** 0.0
8691 H 19.984294 27.445846 40.279326 H 0.0 **** 0.0
8692 O 23.683414 24.709973 23.36232 O 0.0 **** 0.0
8693 H 23.716834 25.407015 24.078615 H 0.0 **** 0.0
8694 H 24.605962 24.547264 23.012328 H 0.0 **** 0.0
8695 O 21.168617 20.015254 8.313853 O 0.0 **** 0.0
8696 H 20.77478 19.868483 9.221274 H 0.0 **** 0.0
8697 H 21.188458 19.148744 7.815025 H 0.0 **** 0.0
8698 O 4.113952 9.164793 43.699361 O 0.0 **** 0.0
8699 H 4.125752 8.206641 43.413231 H 0.0 **** 0.0
8700 H 4.998074 9.584743 43.494342 H 0.0 **** 0.0
8701 O 33.490773 24.704326 6.546282 O 0.0 **** 0.0
8702 H 34.468659 24.829376 6.714105 H 0.0 **** 0.0
8703 H 33.249781 25.108136 5.663715 H 0.0 **** 0.0
8704 O 11.060776 18.400325 10.766714 O 0.0 **** 0.0
8705 H 11.48276 19.306775 10.748242 H 0.0 **** 0.0
8706 H 11.7745 17.700048 10.750219 H 0.0 **** 0.0
8707 O 46.050514 28.06414 20.300131 O 0.0 **** 0.0
8708 H 46.216325 27.225353 19.781474 H 0.0 **** 0.0
8709 H 45.355873 28.612267 19.834197 H 0.0 **** 0.0
8710 O 47.299141 30.075551 9.71735 O 0.0 **** 0.0
8711 H 46.607289 30.071646 8.995278 H 0.0 **** 0.0
8712 H 47.247896 29.220032 10.23264 H 0.0 **** 0.0
8713 O 7.620308 11.072009 28.354307 O 0.0 **** 0.0
8714 H 6.870792 11.166048 27.698987 H 0.0 **** 0.0
8715 H 8.054231 11.96205 28.494312 H 0.0 **** 0.0
8716 O 34.663432 43.652284 38.980732 O 0.0 **** 0.0
8717 H 35.60739 43.496405 39.271778 H 0.0 **** 0.0
8718 H 34.102646 42.863284 39.231851 H 0.0 **** 0.0
8719 O 14.146965 42.98585 42.017332 O 0.0 **** 0.0
8720 H 14.138154 43.506906 41.163818 H 0.0 **** 0.0
8721 H 13.549512 43.429937 42.685089 H 0.0 **** 0.0
8722 O 10.576541 37.428381 29.471515 O 0.0 **** 0.0
8723 H 11.477275 37.834104 29.316174 H 0.0 **** 0.0
8724 H 10.651179 36.431465 29.446007 H 0.0 **** 0.0
8725 O 25.851763 27.078164 38.756485 O 0.0 **** 0.0
8726 H 26.458125 27.844664 38.544668 H 0.0 **** 0.0
8727 H 24.899981 27.376978 38.686605 H 0.0 **** 0.0
8728 O 22.57763 16.135816 10.562923 O 0.0 **** 0.0
8729 H 22.740993 16.196299 11.547665 H 0.0 **** 0.0
8730 H 23.408267 15.817133 10.106254 H 0.0 **** 0.0
8731 O 30.538671 10.620852 42.526023 O 0.0 **** 0.0
8732 H 30.10373 10.807657 43.406928 H 0.0 **** 0.0
8733 H 29.840843 10.585782 41.810572 H 0.0 **** 0.0
8734 O 33.08045 10.559218 21.821404 O 0.0 **** 0.0
8735 H 33.936709 10.084359 22.024859 H 0.0 **** 0.0
8736 H 32.567083 10.041966 21.136593 H 0.0 **** 0.0
8737 O 8.897796 7.364163 34.361542 O 0.0 **** 0.0
8738 H 8.184059 7.339022 33.661535 H 0.0 **** 0.0
8739 H 8.747885 6.623995 35.017089 H 0.0 **** 0.0
8740 O 33.075269 42.465136 33.585625 O 0.0 **** 0.0
8741 H 32.854213 43.43756 33.510861 H 0.0 **** 0.0
8742 H 32.233886 41.927142 33.533658 H 0.0 **** 0.0
8743 O 39.391568 40.753391 38.098459 O 0.0 **** 0.0
8744 H 39.838857 39.963685 38.518412 H 0.0 **** 0.0
8745 H 38.459744 40.506252 37.832587 H 0.0 **** 0.0
8746 O 31.103141 21.038776 7.967418 O 0.0 **** 0.0
8747 H 31.375323 20.138421 8.307036 H 0.0 **** 0.0
8748 H 31.728889 21.732596 8.32395 H 0.0 **** 0.0
8749 O 5.3845 22.699449 35.154761 O 0.0 **** 0.0
8750 H 5.105047 23.376181 34.473584 H 0.0 **** 0.0
8751 H 6.372648 22.758048 35.296862 H 0.0 **** 0.0
8752 O 34.936742 2.816165 26.736661 O 0.0 **** 0.0
8753 H 35.659436 2.134256 26.623626 H 0.0 **** 0.0
8754 H 35.347562 3.717206 26.876001 H 0.0 **** 0.0
8755 O 42.023598 43.8752 37.016791 O 0.0 **** 0.0
8756 H 42.92512 43.442583 37.029535 H 0.0 **** 0.0
8757 H 41.315142 43.169427 37.022968 H 0.0 **** 0.0
8758 O 4.443162 31.57015 47.123502 O 0.0 **** 0.0
8759 H 4.080477 31.381873 46.210773 H 0.0 **** 0.0
8760 H 4.464572 32.558203 47.276328 H 0.0 **** 0.0
8761 O 30.586883 27.452542 16.468744 O 0.0 **** 0.0
8762 H 31.505017 27.056397 16.481511 H 0.0 **** 0.0
8763 H 30.654054 28.450138 16.487514 H 0.0 **** 0.0
8764 O 6.825526 11.853919 17.878158 O 0.0 **** 0.0
8765 H 7.767094 11.549189 17.734442 H 0.0 **** 0.0
8766 H 6.711219 12.146688 18.827517 H 0.0 **** 0.0
8767 O 25.133889 39.791091 14.345771 O 0.0 **** 0.0
8768 H 24.542429 40.225795 13.666602 H 0.0 **** 0.0
8769 H 25.325558 40.438179 15.083744 H 0.0 **** 0.0
8770 O 11.709457 35.775986 47.386213 O 0.0 **** 0.0
8771 H 10.813822 35.903844 47.812303 H 0.0 **** 0.0
8772 H 11.588508 35.491831 46.43506 H 0.0 **** 0.0
8773 O 26.094072 22.490779 33.530585 O 0.0 **** 0.0
8774 H 26.724831 21.717815 33.461787 H 0.0 **** 0.0
8775 H 26.52931 23.231571 34.042304 H 0.0 **** 0.0
8776 O 14.821672 19.828603 36.3135 O 0.0 **** 0.0
8777 H 15.209268 20.177931 37.166613 H 0.0 **** 0.0
8778 H 15.350454 19.037217 36.006646 H 0.0 **** 0.0
8779 O 28.032654 8.559223 15.170678 O 0.0 **** 0.0
8780 H 28.537382 8.929171 14.390644 H 0.0 **** 0.0
8781 H 27.709247 9.311096 15.745271 H 0.0 **** 0.0
8782 O 36.122337 12.061017 4.237679 O 0.0 **** 0.0
8783 H 36.920898 12.095351 4.838665 H 0.0 **** 0.0
8784 H 35.968273 11.118299 3.941691 H 0.0 **** 0.0
8785 O 43.084442 8.602158 13.156353 O 0.0 **** 0.0
8786 H 43.066388 9.594089 13.030611 H 0.0 **** 0.0
8787 H 43.721344 8.370994 13.891867 H 0.0 **** 0.0
8788 O 46.186027 41.30442 45.069947 O 0.0 **** 0.0
8789 H 47.04023 41.700396 45.406998 H 0.0 **** 0.0
8790 H 45.710694 40.847919 45.822097 H 0.0 **** 0.0
8791 O 44.495974 23.372173 39.653996 O 0.0 **** 0.0
8792 H 44.082559 23.595174 40.536845 H 0.0 **** 0.0
8793 H 43.78381 23.074393 39.018219 H 0.0 **** 0.0
8794 O 35.482085 5.940665 21.136179 O 0.0 **** 0.0
8795 H 34.51701 6.139169 20.965039 H 0.0 **** 0.0
8796 H 35.640904 5.883647 22.121871 H 0.0 **** 0.0
8797 O 35.413358 45.281714 22.030608 O 0.0 **** 0.0
8798 H 36.103515 45.848944 21.581167 H 0.0 **** 0.0
8799 H 34.573168 45.810818 22.14974 H 0.0 **** 0.0
8800 O 7.304244 25.741556 8.093319 O 0.0 **** 0.0
8801 H 6.394634 25.326474 8.073874 H 0.0 **** 0.0
8802 H 7.215659 26.735653 8.156463 H 0.0 **** 0.0
8803 O 43.467152 15.442955 35.940393 O 0.0 **** 0.0
8804 H 42.639072 15.084552 35.509239 H 0.0 **** 0.0
8805 H 43.810119 14.779921 36.605841 H 0.0 **** 0.0
8806 O 18.637451 47.108281 20.934777 O 0.0 **** 0.0
8807 H 19.352569 46.410586 20.891285 H 0.0 **** 0.0
8808 H 18.756454 47.656332 21.762751 H 0.0 **** 0.0
8809 O 39.171541 24.274067 14.248364 O 0.0 **** 0.0
8810 H 38.587153 23.483046 14.429583 H 0.0 **** 0.0
8811 H 39.234263 24.837753 15.072007 H 0.0 **** 0.0
8812 O 0.577154 2.138788 24.381569 O 0.0 **** 0.0
8813 H -0.000113 1.322206 24.38593 H 0.0 **** 0.0
8814 H -0.00036 2.955204 24.383968 H 0.0 **** 0.0
8815 O 35.667505 39.794592 37.397498 O 0.0 **** 0.0
8816 H 35.636403 40.6865 37.848712 H 0.0 **** 0.0
8817 H 34.988945 39.187799 37.81153 H 0.0 **** 0.0
8818 O 6.562609 39.07946 1.328434 O 0.0 **** 0.0
8819 H 5.713364 38.860804 1.809095 H 0.0 **** 0.0
8820 H 6.732325 40.063497 1.382557 H 0.0 **** 0.0
8821 O 9.874703 27.844179 41.715138 O 0.0 **** 0.0
8822 H 9.820847 28.826153 41.896493 H 0.0 **** 0.0
8823 H 10.834097 27.565089 41.673491 H 0.0 **** 0.0
8824 O 2.023641 25.430569 18.932642 O 0.0 **** 0.0
8825 H 2.134141 26.105256 18.202813 H 0.0 **** 0.0
8826 H 1.210582 25.652172 19.471057 H 0.0 **** 0.0
8827 O 39.755205 44.695194 18.74922 O 0.0 **** 0.0
8828 H 39.875901 44.625084 17.758977 H 0.0 **** 0.0
8829 H 39.457507 43.812124 19.112023 H 0.0 **** 0.0
8830 O 44.644526 32.198339 15.02482 O 0.0 **** 0.0
8831 H 45.349944 32.361046 14.334911 H 0.0 **** 0.0
8832 H 44.842182 31.345934 15.50897 H 0.0 **** 0.0
8833 O 43.41036 23.970363 25.233664 O 0.0 **** 0.0
8834 H 43.965055 23.379006 25.819047 H 0.0 **** 0.0
8835 H 42.696964 23.426848 24.79126 H 0.0 **** 0.0
8836 O 10.752437 26.18736 18.049697 O 0.0 **** 0.0
8837 H 11.434213 26.907806 17.922409 H 0.0 **** 0.0
8838 H 10.660536 25.983951 19.024501 H 0.0 **** 0.0
8839 O 23.626404 28.229612 1.734895 O 0.0 **** 0.0
8840 H 23.029849 27.542005 2.148877 H 0.0 **** 0.0
8841 H 23.450851 29.119789 2.155405 H 0.0 **** 0.0
8842 O 24.632871 28.062051 14.502406 O 0.0 **** 0.0
8843 H 23.70787 28.00436 14.87805 H 0.0 **** 0.0
8844 H 24.587104 28.355854 13.547603 H 0.0 **** 0.0
8845 O 26.954047 7.239627 2.806132 O 0.0 **** 0.0
8846 H 26.671909 6.509253 2.184027 H 0.0 **** 0.0
8847 H 27.931949 7.155158 2.997533 H 0.0 **** 0.0
8848 O 23.163752 19.977965 42.796977 O 0.0 **** 0.0
8849 H 24.149126 20.147092 42.819264 H 0.0 **** 0.0
8850 H 22.992555 18.995323 42.868869 H 0.0 **** 0.0
8851 O 19.748397 7.895174 16.955845 O 0.0 **** 0.0
8852 H 20.553541 7.790102 17.539598 H 0.0 **** 0.0
8853 H 19.54637 7.024724 16.506887 H 0.0 **** 0.0
8854 O 8.656081 15.59868 32.261478 O 0.0 **** 0.0
8855 H 9.316941 14.850371 32.203513 H 0.0 **** 0.0
8856 H 9.140092 16.473427 32.236689 H 0.0 **** 0.0
8857 O 32.128459 10.718573 47.283021 O 0.0 **** 0.0
8858 H 32.409675 9.852826 46.868941 H 0.0 **** 0.0
8859 H 32.895209 11.360362 47.266784 H 0.0 **** 0.0
8860 O 29.568468 21.430148 13.077518 O 0.0 **** 0.0
8861 H 29.65576 20.717264 13.773391 H 0.0 **** 0.0
8862 H 28.899151 21.145676 12.391112 H 0.0 **** 0.0
8863 O 13.289021 13.010234 32.770747 O 0.0 **** 0.0
8864 H 14.111943 13.084278 33.334113 H 0.0 **** 0.0
8865 H 12.673621 13.770717 32.978137 H 0.0 **** 0.0
8866 O 46.333357 24.593675 39.129539 O 0.0 **** 0.0
8867 H 46.632636 23.642486 39.205268 H 0.0 **** 0.0
8868 H 45.755569 24.697813 38.319984 H 0.0 **** 0.0
8869 O 45.435551 14.153527 7.852432 O 0.0 **** 0.0
8870 H 45.47697 13.31088 8.389361 H 0.0 **** 0.0
8871 H 44.686661 14.725524 8.187165 H 0.0 **** 0.0
8872 O 38.228865 3.769501 37.469365 O 0.0 **** 0.0
8873 H 38.383888 3.152827 36.69752 H 0.0 **** 0.0
8874 H 38.651163 4.655573 37.278044 H 0.0 **** 0.0
8875 O 29.262094 3.213508 31.211141 O 0.0 **** 0.0
8876 H 30.117735 2.764653 31.468958 H 0.0 **** 0.0
8877 H 29.049182 3.002199 30.25716 H 0.0 **** 0.0
8878 O 28.965389 21.257997 16.950555 O 0.0 **** 0.0
8879 H 29.369805 21.180407 16.039242 H 0.0 **** 0.0
8880 H 28.013522 20.952926 16.919832 H 0.0 **** 0.0
8881 O 31.953003 15.981226 46.797887 O 0.0 **** 0.0
8882 H 31.534965 16.361958 47.62272 H 0.0 **** 0.0
8883 H 32.366095 15.095982 47.011805 H 0.0 **** 0.0
8884 O 28.432915 35.258129 17.706934 O 0.0 **** 0.0
8885 H 29.110867 34.589986 18.013573 H 0.0 **** 0.0
8886 H 27.997672 34.930445 16.868334 H 0.0 **** 0.0
8887 O 19.988439 3.998273 35.935757 O 0.0 **** 0.0
8888 H 20.672872 4.108999 35.215094 H 0.0 **** 0.0
8889 H 19.111744 4.362641 35.621584 H 0.0 **** 0.0
8890 O 20.429016 2.573896 22.113541 O 0.0 **** 0.0
8891 H 21.108681 3.307387 22.124037 H 0.0 **** 0.0
8892 H 19.511785 2.96867 22.167411 H 0.0 **** 0.0
8893 O 5.997757 34.877326 12.359387 O 0.0 **** 0.0
8894 H 6.050526 35.871117 12.261111 H 0.0 **** 0.0
8895 H 6.916269 34.506881 12.49784 H 0.0 **** 0.0
8896 O 23.969458 22.425412 31.749364 O 0.0 **** 0.0
8897 H 24.797604 22.29311 31.204631 H 0.0 **** 0.0
8898 H 23.262145 21.789606 31.440298 H 0.0 **** 0.0
8899 O 7.993504 34.040568 19.247158 O 0.0 **** 0.0
8900 H 7.290165 33.691778 19.866611 H 0.0 **** 0.0
8901 H 8.727249 34.462453 19.779787 H 0.0 **** 0.0
8902 O 38.804304 36.677552 4.513518 O 0.0 **** 0.0
8903 H 38.999844 35.753508 4.184931 H 0.0 **** 0.0
8904 H 39.663767 37.161994 4.676931 H 0.0 **** 0.0
8905 O 28.678834 14.590089 14.712919 O 0.0 **** 0.0
8906 H 28.209235 15.420621 15.012512 H 0.0 **** 0.0
8907 H 28.005691 13.871994 14.536054 H 0.0 **** 0.0
8908 O 42.262689 4.312988 41.607782 O 0.0 **** 0.0
8909 H 42.017394 3.369823 41.383435 H 0.0 **** 0.0
8910 H 41.592399 4.936443 41.205193 H 0.0 **** 0.0
8911 O 33.385092 13.357838 37.966086 O 0.0 **** 0.0
8912 H 34.172823 12.970079 37.487352 H 0.0 **** 0.0
8913 H 33.700527 14.025284 38.640682 H 0.0 **** 0.0
8914 O 14.372451 37.702534 29.138914 O 0.0 **** 0.0
8915 H 14.972506 37.018684 28.723767 H 0.0 **** 0.0
8916 H 13.578633 37.248009 29.543046 H 0.0 **** 0.0
8917 O 20.968854 41.300795 12.419857 O 0.0 **** 0.0
8918 H 20.823451 40.366356 12.094673 H 0.0 **** 0.0
8919 H 21.906749 41.582185 12.216795 H 0.0 **** 0.0
8920 O 47.127063 11.87886 39.898498 O 0.0 **** 0.0
8921 H 47.999708 11.516146 39.571402 H 0.0 **** 0.0
8922 H 46.377255 11.339665 39.514935 H 0.0 **** 0.0
8923 O 47.867164 4.288173 11.377919 O 0.0 **** 0.0
8924 H 47.58766 4.9592 12.064696 H 0.0 **** 0.0
8925 H 48.005548 3.400197 11.816568 H 0.0 **** 0.0
8926 O 5.624276 36.835569 22.219666 O 0.0 **** 0.0
8927 H 5.761289 36.898702 21.231079 H 0.0 **** 0.0
8928 H 5.351153 35.903919 22.459446 H 0.0 **** 0.0
8929 O 30.607796 40.146525 9.683915 O 0.0 **** 0.0
8930 H 29.755696 40.102641 10.205511 H 0.0 **** 0.0
8931 H 30.848527 41.102983 9.518689 H 0.0 **** 0.0
8932 O 7.923569 13.136061 11.495601 O 0.0 **** 0.0
8933 H 8.345537 12.449057 12.087235 H 0.0 **** 0.0
8934 H 8.020911 12.857989 10.539953 H 0.0 **** 0.0
8935 O 34.976315 9.463244 40.499983 O 0.0 **** 0.0
8936 H 35.285438 8.537164 40.716508 H 0.0 **** 0.0
8937 H 35.667402 10.1229 40.795474 H 0.0 **** 0.0
8938 O 38.497621 13.551291 33.367668 O 0.0 **** 0.0
8939 H 37.537875 13.3225 33.204554 H 0.0 **** 0.0
8940 H 39.070883 12.763192 33.143315 H 0.0 **** 0.0
8941 O 40.000553 20.4918 36.931581 O 0.0 **** 0.0
8942 H 40.837303 20.271184 36.430342 H 0.0 **** 0.0
8943 H 39.208444 20.155249 36.422308 H 0.0 **** 0.0
8944 O 41.794181 22.522168 9.142284 O 0.0 **** 0.0
8945 H 41.176608 21.955246 9.687505 H 0.0 **** 0.0
8946 H 42.740244 22.252904 9.322633 H 0.0 **** 0.0
8947 O 31.296345 8.70801 19.961918 O 0.0 **** 0.0
8948 H 30.340296 8.99859 19.921955 H 0.0 **** 0.0
8949 H 31.338414 7.718775 20.102303 H 0.0 **** 0.0
8950 O 31.385019 18.671843 19.389209 O 0.0 **** 0.0
8951 H 30.409102 18.801473 19.564837 H 0.0 **** 0.0
8952 H 31.850465 19.556225 19.425154 H 0.0 **** 0.0
8953 O 10.543002 9.689737 35.740823 O 0.0 **** 0.0
8954 H 10.149864 10.554477 35.428206 H 0.0 **** 0.0
8955 H 9.809622 9.029417 35.90267 H 0.0 **** 0.0
8956 O 26.479822 1.287924 0.47026 O 0.0 **** 0.0
8957 H 25.803674 1.844325 0.953277 H 0.0 **** 0.0
8958 H 27.3918 1.672116 0.614326 H 0.0 **** 0.0
8959 O 38.20846 34.405046 30.089991 O 0.0 **** 0.0
8960 H 38.848645 33.866204 30.637601 H 0.0 **** 0.0
8961 H 38.719374 34.997797 29.467354 H 0.0 **** 0.0
8962 O 22.80805 32.015266 46.601002 O 0.0 **** 0.0
8963 H 22.443641 32.791617 46.08666 H 0.0 **** 0.0
8964 H 22.084287 31.339761 46.74215 H 0.0 **** 0.0
8965 O 41.317132 44.733376 14.411637 O 0.0 **** 0.0
8966 H 41.229468 44.512635 15.383055 H 0.0 **** 0.0
8967 H 42.147326 44.311163 14.047527 H 0.0 **** 0.0
8968 O 26.060334 27.246649 10.754489 O 0.0 **** 0.0
8969 H 26.422686 28.173972 10.848489 H 0.0 **** 0.0
8970 H 26.708061 26.686501 10.238014 H 0.0 **** 0.0
8971 O 39.584693 32.825827 16.208631 O 0.0 **** 0.0
8972 H 40.148346 33.584156 15.881071 H 0.0 **** 0.0
8973 H 39.533069 32.119659 15.502426 H 0.0 **** 0.0
8974 O 19.783431 15.662907 11.128315 O 0.0 **** 0.0
8975 H 20.457765 16.400149 11.085742 H 0.0 **** 0.0
8976 H 20.242379 14.783668 11.000381 H 0.0 **** 0.0
8977 O 41.753566 45.568933 18.464936 O 0.0 **** 0.0
8978 H 42.003103 46.483312 18.146023 H 0.0 **** 0.0
8979 H 42.201044 44.882418 17.891767 H 0.0 **** 0.0
8980 O 35.191935 26.977638 10.336107 O 0.0 **** 0.0
8981 H 34.602921 26.209306 10.085524 H 0.0 **** 0.0
8982 H 34.650496 27.818013 10.362087 H 0.0 **** 0.0
8983 O 38.012976 23.545292 12.117068 O 0.0 **** 0.0
8984 H 38.858109 23.734024 11.616874 H 0.0 **** 0.0
8985 H 37.718805 24.371268 12.597993 H 0.0 **** 0.0
8986 O 5.232319 16.65195 18.827683 O 0.0 **** 0.0
8987 H 4.8393 15.742155 18.693994 H 0.0 **** 0.0
8988 H 6.193204 16.643882 18.55074 H 0.0 **** 0.0
8989 O 12.975471 4.153432 10.121121 O 0.0 **** 0.0
8990 H 12.751002 3.182912 10.209251 H 0.0 **** 0.0
8991 H 12.131697 4.68947 10.093346 H 0.0 **** 0.0
8992 O 32.704042 32.620643 33.504655 O 0.0 **** 0.0
8993 H 31.936177 32.479223 34.129513 H 0.0 **** 0.0
8994 H 32.905654 31.76625 33.025669 H 0.0 **** 0.0
8995 O 22.704562 11.697142 35.85971 O 0.0 **** 0.0
8996 H 21.847472 11.215016 36.041404 H 0.0 **** 0.0
8997 H 22.508552 12.650825 35.631387 H 0.0 **** 0.0
8998 O 45.405644 29.284922 28.196228 O 0.0 **** 0.0
8999 H 45.643864 29.015181 29.129263 H 0.0 **** 0.0
9000 H 44.535907 28.863512 27.939256 H 0.0 **** 0.0
9001 O 34.912559 36.237814 18.939378 O 0.0 **** 0.0
9002 H 34.457156 36.907423 19.526144 H 0.0 **** 0.0
9003 H 35.044246 35.385717 19.445987 H 0.0 **** 0.0
9004 O 38.954247 34.732374 47.939278 O 0.0 **** 0.0
9005 H 39.659188 34.488742 47.273122 H 0.0 **** 0.0
9006 H 38.283451 33.993185 48.000075 H 0.0 **** 0.0
9007 O 19.333948 36.268962 0.446008 O 0.0 **** 0.0
9008 H 18.939908 37.131923 0.129631 H 0.0 **** 0.0
9009 H 18.86819 35.505821 -0.002041 H 0.0 **** 0.0
9010 O 33.796479 14.670113 18.955269 O 0.0 **** 0.0
9011 H 33.681426 15.318792 18.202912 H 0.0 **** 0.0
9012 H 32.913245 14.511642 19.396685 H 0.0 **** 0.0
9013 O 6.486266 42.700728 30.263039 O 0.0 **** 0.0
9014 H 7.275278 42.412347 29.720491 H 0.0 **** 0.0
9015 H 6.378863 43.692571 30.19394 H 0.0 **** 0.0
9016 O 13.754974 43.864493 18.351445 O 0.0 **** 0.0
9017 H 13.139567 43.095685 18.525431 H 0.0 **** 0.0
9018 H 14.702882 43.561659 18.450569 H 0.0 **** 0.0
9019 O 26.563281 18.908926 26.329565 O 0.0 **** 0.0
9020 H 25.936495 19.658127 26.115323 H 0.0 **** 0.0
9021 H 27.271857 19.235728 26.955011 H 0.0 **** 0.0
9022 O 10.656848 34.448326 27.288548 O 0.0 **** 0.0
9023 H 10.936008 35.134798 26.617065 H 0.0 **** 0.0
9024 H 11.420275 33.827772 27.467864 H 0.0 **** 0.0
9025 O 0.542709 32.477326 22.006152 O 0.0 **** 0.0
9026 H 0.001482 32.393367 22.842864 H 0.0 **** 0.0
9027 H 0.002472 32.942856 21.30509 H 0.0 **** 0.0
9028 O 3.968608 40.238394 45.355615 O 0.0 **** 0.0
9029 H 3.218346 40.670408 44.855081 H 0.0 **** 0.0
9030 H 4.826292 40.704325 45.138011 H 0.0 **** 0.0
9031 O 10.714843 22.315376 14.460065 O 0.0 **** 0.0
9032 H 9.852523 21.835621 14.297884 H 0.0 **** 0.0
9033 H 10.86282 22.988916 13.735835 H 0.0 **** 0.0
9034 O 44.417575 10.802027 5.580377 O 0.0 **** 0.0
9035 H 44.746062 10.579669 6.498373 H 0.0 **** 0.0
9036 H 44.936371 11.577016 5.2194 H 0.0 **** 0.0
9037 O 14.070713 22.904414 10.531956 O 0.0 **** 0.0
9038 H 14.995781 22.9215 10.911455 H 0.0 **** 0.0
9039 H 13.681481 23.825127 10.561081 H 0.0 **** 0.0
9040 O 24.526997 5.016522 37.463241 O 0.0 **** 0.0
9041 H 24.206715 5.843052 37.926201 H 0.0 **** 0.0
9042 H 25.375916 5.21635 36.973886 H 0.0 **** 0.0
9043 O 22.036653 19.870104 31.752558 O 0.0 **** 0.0
9044 H 21.90619 18.890864 31.907902 H 0.0 **** 0.0
9045 H 21.317552 20.380992 32.223674 H 0.0 **** 0.0
9046 O 47.561436 10.109458 18.70912 O 0.0 **** 0.0
9047 H 48.000087 10.457439 17.880533 H 0.0 **** 0.0
9048 H 48.000806 10.511154 19.512649 H 0.0 **** 0.0
9049 O 24.382479 17.596487 6.072877 O 0.0 **** 0.0
9050 H 23.832869 17.208065 6.812552 H 0.0 **** 0.0
9051 H 23.821808 18.228115 5.53738 H 0.0 **** 0.0
9052 O 12.193471 5.834181 43.952946 O 0.0 **** 0.0
9053 H 12.968798 5.433913 43.46436 H 0.0 **** 0.0
9054 H 12.017147 5.309012 44.785514 H 0.0 **** 0.0
9055 O 6.833324 14.043986 26.479899 O 0.0 **** 0.0
9056 H 7.407172 13.254537 26.697916 H 0.0 **** 0.0
9057 H 7.1525 14.463469 25.630061 H 0.0 **** 0.0
9058 O 30.727472 41.066548 22.612107 O 0.0 **** 0.0
9059 H 31.358477 40.550797 23.191672 H 0.0 **** 0.0
9060 H 31.246879 41.583959 21.931986 H 0.0 **** 0.0
9061 O 19.129481 7.735422 29.855769 O 0.0 **** 0.0
9062 H 18.404441 7.088322 30.091657 H 0.0 **** 0.0
9063 H 19.883042 7.643431 30.506726 H 0.0 **** 0.0
9064 O 4.025628 46.963597 16.488306 O 0.0 **** 0.0
9065 H 4.131628 47.175896 17.459777 H 0.0 **** 0.0
9066 H 4.92686 46.913956 16.057749 H 0.0 **** 0.0
9067 O 27.131847 9.575269 19.868055 O 0.0 **** 0.0
9068 H 27.084841 9.28813 18.911288 H 0.0 **** 0.0
9069 H 26.448369 9.07533 20.400015 H 0.0 **** 0.0
9070 O 7.520902 46.029302 20.842194 O 0.0 **** 0.0
9071 H 7.493996 45.629128 19.926116 H 0.0 **** 0.0
9072 H 8.388029 45.796123 21.282399 H 0.0 **** 0.0
9073 O 6.592385 1.237773 43.170852 O 0.0 **** 0.0
9074 H 7.491388 1.230152 42.732903 H 0.0 **** 0.0
9075 H 6.641849 1.756548 44.024367 H 0.0 **** 0.0
9076 O 26.397125 19.787978 1.256806 O 0.0 **** 0.0
9077 H 25.953559 19.033011 0.773756 H 0.0 **** 0.0
9078 H 27.289268 19.488695 1.595293 H 0.0 **** 0.0
9079 O 39.396753 34.485454 12.469333 O 0.0 **** 0.0
9080 H 40.027069 33.709086 12.473596 H 0.0 **** 0.0
9081 H 39.914648 35.334636 12.365711 H 0.0 **** 0.0
9082 O 4.849177 44.653519 45.004848 O 0.0 **** 0.0
9083 H 5.469996 45.021837 44.312758 H 0.0 **** 0.0
9084 H 5.295065 44.678413 45.899625 H 0.0 **** 0.0
9085 O 28.65164 25.99448 2.341646 O 0.0 **** 0.0
9086 H 27.660929 25.858266 2.340469 H 0.0 **** 0.0
9087 H 28.860371 26.920364 2.65666 H 0.0 **** 0.0
9088 O 29.336946 29.325247 30.775726 O 0.0 **** 0.0
9089 H 30.129371 29.733036 31.229414 H 0.0 **** 0.0
9090 H 28.549322 29.35365 31.391279 H 0.0 **** 0.0
9091 O 0.319603 36.51572 39.20254 O 0.0 **** 0.0
9092 H 0.386447 35.659906 39.715548 H 0.0 **** 0.0
9093 H 1.0715 36.569993 38.545449 H 0.0 **** 0.0
9094 O 6.923429 2.765994 5.163989 O 0.0 **** 0.0
9095 H 7.637867 3.441093 4.979916 H 0.0 **** 0.0
9096 H 7.337325 1.860862 5.261398 H 0.0 **** 0.0
9097 O 23.197744 24.945446 26.166236 O 0.0 **** 0.0
9098 H 22.450457 25.603595 26.074235 H 0.0 **** 0.0
9099 H 22.826034 24.017063 26.166689 H 0.0 **** 0.0
9100 O 15.21314 16.442841 14.435464 O 0.0 **** 0.0
9101 H 15.919154 17.148883 14.491252 H 0.0 **** 0.0
9102 H 15.508883 15.724859 13.805305 H 0.0 **** 0.0
9103 O 41.403653 35.819833 27.480048 O 0.0 **** 0.0
9104 H 42.236778 35.310156 27.694976 H 0.0 **** 0.0
9105 H 40.654553 35.492028 28.05577 H 0.0 **** 0.0
9106 O 25.199147 25.161064 46.294798 O 0.0 **** 0.0
9107 H 24.652009 24.325665 46.347806 H 0.0 **** 0.0
9108 H 24.641812 25.901149 45.918348 H 0.0 **** 0.0
9109 O 20.965675 16.064792 19.618461 O 0.0 **** 0.0
9110 H 20.518266 16.957188 19.677782 H 0.0 **** 0.0
9111 H 21.864706 16.113125 20.053742 H 0.0 **** 0.0
9112 O 4.605342 39.408657 41.730252 O 0.0 **** 0.0
9113 H 4.369399 39.495418 42.698171 H 0.0 **** 0.0
9114 H 5.508887 38.988901 41.6438 H 0.0 **** 0.0
9115 O 34.5778 14.476846 27.473836 O 0.0 **** 0.0
9116 H 33.81829 13.826839 27.447419 H 0.0 **** 0.0
9117 H 35.402255 14.013051 27.798229 H 0.0 **** 0.0
9118 O 25.100097 38.271013 16.995683 O 0.0 **** 0.0
9119 H 26.079335 38.395641 16.835607 H 0.0 **** 0.0
9120 H 24.582774 38.754747 16.289679 H 0.0 **** 0.0
9121 O 2.656865 25.777104 5.54056 O 0.0 **** 0.0
9122 H 2.169918 26.605316 5.263054 H 0.0 **** 0.0
9123 H 2.02358 25.157962 6.00497 H 0.0 **** 0.0
9124 O 19.771999 43.898934 42.633565 O 0.0 **** 0.0
9125 H 20.741581 43.70131 42.488934 H 0.0 **** 0.0
9126 H 19.225915 43.107718 42.358189 H 0.0 **** 0.0
9127 O 35.626486 42.85377 46.790765 O 0.0 **** 0.0
9128 H 34.661305 42.632571 46.930621 H 0.0 **** 0.0
9129 H 36.135509 42.015561 46.594893 H 0.0 **** 0.0
9130 O 42.151138 29.456359 47.110857 O 0.0 **** 0.0
9131 H 42.273387 30.16506 46.415975 H 0.0 **** 0.0
9132 H 41.995798 29.885397 48.000722 H 0.0 **** 0.0
9133 O 25.461358 28.510572 17.630502 O 0.0 **** 0.0
9134 H 25.138047 27.827342 18.285277 H 0.0 **** 0.0
9135 H 26.318142 28.90797 17.959227 H 0.0 **** 0.0
9136 O 28.887157 46.26081 43.839866 O 0.0 **** 0.0
9137 H 29.590775 46.965617 43.930596 H 0.0 **** 0.0
9138 H 27.983141 46.687946 43.859176 H 0.0 **** 0.0
9139 O 17.181389 5.995541 42.212173 O 0.0 **** 0.0
9140 H 16.241801 6.237466 42.454471 H 0.0 **** 0.0
9141 H 17.799173 6.726298 42.502692 H 0.0 **** 0.0
9142 O 42.413023 16.129471 40.857009 O 0.0 **** 0.0
9143 H 42.873915 17.009617 40.970957 H 0.0 **** 0.0
9144 H 43.096178 15.405613 40.760103 H 0.0 **** 0.0
9145 O 6.581848 16.747765 13.551805 O 0.0 **** 0.0
9146 H 7.309764 17.110425 14.133765 H 0.0 **** 0.0
9147 H 6.05681 17.50528 13.163773 H 0.0 **** 0.0
9148 O 13.460196 42.581282 5.528698 O 0.0 **** 0.0
9149 H 12.932933 42.447706 6.367873 H 0.0 **** 0.0
9150 H 13.705168 41.691385 5.143814 H 0.0 **** 0.0
9151 O 13.90066 19.459638 28.952116 O 0.0 **** 0.0
9152 H 13.054368 19.527406 28.423666 H 0.0 **** 0.0
9153 H 13.810347 19.989551 29.795382 H 0.0 **** 0.0
9154 O 3.492896 37.710627 45.677945 O 0.0 **** 0.0
9155 H 3.009043 38.41411 46.198579 H 0.0 **** 0.0
9156 H 4.374183 38.070117 45.371083 H 0.0 **** 0.0
9157 O 7.723779 25.542717 0.443818 O 0.0 **** 0.0
9158 H 8.323827 25.048952 1.073263 H 0.0 **** 0.0
9159 H 6.79571 25.176473 0.511761 H 0.0 **** 0.0
9160 O 29.35469 2.096348 28.275287 O 0.0 **** 0.0
9161 H 28.471856 2.556023 28.178518 H 0.0 **** 0.0
9162 H 29.252221 1.300015 28.871456 H 0.0 **** 0.0
9163 O 23.348225 41.781437 30.106494 O 0.0 **** 0.0
9164 H 23.775867 42.296463 29.363572 H 0.0 **** 0.0
9165 H 22.629319 42.335962 30.525708 H 0.0 **** 0.0
9166 O 39.022932 15.871312 40.324148 O 0.0 **** 0.0
9167 H 39.688852 15.473626 40.955385 H 0.0 **** 0.0
9168 H 39.303897 16.800896 40.085411 H 0.0 **** 0.0
9169 O 41.630133 7.30725 45.319046 O 0.0 **** 0.0
9170 H 42.533676 7.080024 44.955671 H 0.0 **** 0.0
9171 H 41.585421 8.287448 45.512112 H 0.0 **** 0.0
9172 O 6.693585 14.761491 15.620439 O 0.0 **** 0.0
9173 H 7.680993 14.767545 15.462165 H 0.0 **** 0.0
9174 H 6.262011 14.098757 15.008401 H 0.0 **** 0.0
9175 O 40.119901 21.927129 42.011921 O 0.0 **** 0.0
9176 H 40.466228 21.317041 41.299241 H 0.0 **** 0.0
9177 H 40.368587 22.870622 41.79274 H 0.0 **** 0.0
9178 O 27.672927 19.776384 21.119898 O 0.0 **** 0.0
9179 H 26.733462 19.743962 21.461098 H 0.0 **** 0.0
9180 H 28.292362 20.006432 21.870526 H 0.0 **** 0.0
9181 O 11.67746 23.087892 19.050578 O 0.0 **** 0.0
9182 H 11.047832 23.834199 19.26658 H 0.0 **** 0.0
9183 H 12.610756 23.361264 19.283577 H 0.0 **** 0.0
9184 O 35.899419 14.302703 47.003001 O 0.0 **** 0.0
9185 H 36.410342 15.144429 46.828309 H 0.0 **** 0.0
9186 H 35.77665 14.185817 47.988561 H 0.0 **** 0.0
9187 O 38.465747 22.835381 5.490536 O 0.0 **** 0.0
9188 H 39.069333 22.03852 5.518109 H 0.0 **** 0.0
9189 H 39.003013 23.653476 5.285286 H 0.0 **** 0.0
9190 O 37.866448 7.106536 5.21302 O 0.0 **** 0.0
9191 H 36.879679 7.007437 5.084457 H 0.0 **** 0.0
9192 H 38.045532 7.849101 5.858458 H 0.0 **** 0.0
9193 O 22.279529 18.728053 19.958172 O 0.0 **** 0.0
9194 H 21.975517 18.197068 20.749181 H 0.0 **** 0.0
9195 H 23.110796 19.231392 20.194199 H 0.0 **** 0.0
9196 O 16.275451 40.707866 40.370948 O 0.0 **** 0.0
9197 H 16.014202 39.7481 40.474203 H 0.0 **** 0.0
9198 H 15.931586 41.232508 41.149774 H 0.0 **** 0.0
9199 O 40.611551 8.544318 40.747112 O 0.0 **** 0.0
9200 H 40.450679 9.335116 41.337723 H 0.0 **** 0.0
9201 H 39.772881 8.004054 40.67776 H 0.0 **** 0.0
9202 O 26.116078 47.698417 42.223419 O 0.0 **** 0.0
9203 H 26.383709 48.012954 43.13419 H 0.0 **** 0.0
9204 H 26.64013 46.880459 41.985977 H 0.0 **** 0.0
9205 O 4.790893 27.010678 4.110961 O 0.0 **** 0.0
9206 H 5.718459 27.379443 4.050153 H 0.0 **** 0.0
9207 H 4.678638 26.278477 3.43914 H 0.0 **** 0.0
9208 O 8.073024 36.285494 27.338307 O 0.0 **** 0.0
9209 H 8.085079 37.285423 27.330626 H 0.0 **** 0.0
9210 H 9.010895 35.941219 27.382294 H 0.0 **** 0.0
9211 O 20.698594 13.828902 26.997788 O 0.0 **** 0.0
9212 H 20.77097 12.849493 27.186421 H 0.0 **** 0.0
9213 H 20.368808 14.302155 27.814694 H 0.0 **** 0.0
9214 O 29.172115 14.308172 31.237828 O 0.0 **** 0.0
9215 H 28.900019 13.794935 30.423817 H 0.0 **** 0.0
9216 H 28.645832 13.98747 32.025381 H 0.0 **** 0.0
9217 O 20.731637 3.914025 31.265596 O 0.0 **** 0.0
9218 H 21.407805 3.608734 30.595031 H 0.0 **** 0.0
9219 H 20.082878 3.17447 31.445133 H 0.0 **** 0.0
9220 O 42.585681 22.025714 42.029915 O 0.0 **** 0.0
9221 H 42.556725 22.90814 42.499542 H 0.0 **** 0.0
9222 H 43.52186 21.836451 41.733587 H 0.0 **** 0.0
9223 O 12.37576 2.89224 30.596926 O 0.0 **** 0.0
9224 H 12.388222 3.419228 29.747108 H 0.0 **** 0.0
9225 H 11.428968 2.70838 30.861207 H 0.0 **** 0.0
9226 O 11.638221 8.524121 30.605424 O 0.0 **** 0.0
9227 H 11.553209 7.577637 30.29397 H 0.0 **** 0.0
9228 H 12.572468 8.688086 30.922224 H 0.0 **** 0.0
9229 O 27.764376 32.003141 43.136373 O 0.0 **** 0.0
9230 H 28.607524 31.511653 42.918188 H 0.0 **** 0.0
9231 H 27.147958 31.973103 42.349488 H 0.0 **** 0.0
9232 O 13.183485 43.109797 16.194534 O 0.0 **** 0.0
9233 H 14.055915 42.939365 15.736405 H 0.0 **** 0.0
9234 H 12.751504 42.237527 16.423882 H 0.0 **** 0.0
9235 O 39.323637 5.437723 4.402096 O 0.0 **** 0.0
9236 H 38.941119 5.701284 3.516501 H 0.0 **** 0.0
9237 H 38.60201 5.04755 4.974008 H 0.0 **** 0.0
9238 O 27.834328 38.47253 36.608091 O 0.0 **** 0.0
9239 H 27.720564 39.34486 37.083654 H 0.0 **** 0.0
9240 H 27.105206 37.845637 36.882772 H 0.0 **** 0.0
9241 O 2.628779 30.602421 39.164758 O 0.0 **** 0.0
9242 H 2.503572 29.622867 39.32243 H 0.0 **** 0.0
9243 H 1.756033 31.011253 38.897863 H 0.0 **** 0.0
9244 O 44.36021 24.78654 11.274826 O 0.0 **** 0.0
9245 H 44.126072 23.818773 11.181709 H 0.0 **** 0.0
9246 H 43.566808 25.289939 11.617123 H 0.0 **** 0.0
9247 O 30.215037 44.507184 43.87338 O 0.0 **** 0.0
9248 H 29.720865 43.676993 43.615232 H 0.0 **** 0.0
9249 H 31.137645 44.479105 43.488582 H 0.0 **** 0.0
9250 O 12.262857 0.50719 28.458902 O 0.0 **** 0.0
9251 H 11.834865 1.403039 28.578653 H 0.0 **** 0.0
9252 H 13.205092 0.627132 28.146058 H 0.0 **** 0.0
9253 O 19.605078 17.671813 32.810732 O 0.0 **** 0.0
9254 H 20.263403 16.92601 32.708508 H 0.0 **** 0.0
9255 H 20.083022 18.50072 33.1015 H 0.0 **** 0.0
9256 O 3.102654 0.010244 2.209325 O 0.0 **** 0.0
9257 H 2.1556 0.331402 2.212398 H 0.0 **** 0.0
9258 H 3.686738 0.690644 2.652003 H 0.0 **** 0.0
9259 O 45.797071 18.415914 8.618848 O 0.0 **** 0.0
9260 H 44.982261 18.863472 8.250285 H 0.0 **** 0.0
9261 H 45.586486 17.461247 8.829392 H 0.0 **** 0.0
9262 O 18.206874 42.430641 16.465855 O 0.0 **** 0.0
9263 H 19.101491 42.777155 16.748081 H 0.0 **** 0.0
9264 H 17.926573 41.692576 17.079658 H 0.0 **** 0.0
9265 O 32.697045 47.018398 5.987721 O 0.0 **** 0.0
9266 H 33.480434 47.589194 6.233803 H 0.0 **** 0.0
9267 H 32.539156 47.076202 5.001925 H 0.0 **** 0.0
9268 O 45.885342 5.220862 30.517819 O 0.0 **** 0.0
9269 H 45.724549 4.534724 29.808295 H 0.0 **** 0.0
9270 H 46.542999 5.896693 30.18495 H 0.0 **** 0.0
9271 O 5.529471 14.617024 0.182693 O 0.0 **** 0.0
9272 H 5.118296 14.462721 1.08113 H 0.0 **** 0.0
9273 H 5.57544 15.599428 0.001498 H 0.0 **** 0.0
9274 O 40.280625 46.421869 42.91172 O 0.0 **** 0.0
9275 H 39.385054 46.338086 42.47469 H 0.0 **** 0.0
9276 H 40.540438 47.3865 42.956983 H 0.0 **** 0.0
9277 O 33.502039 45.226969 7.687109 O 0.0 **** 0.0
9278 H 34.257569 45.784559 7.343117 H 0.0 **** 0.0
9279 H 32.706433 45.809667 7.853055 H 0.0 **** 0.0
9280 O 0.006983 44.635778 28.052056 O 0.0 **** 0.0
9281 H -3.8e-05 43.726577 28.46843 H 0.0 **** 0.0
9282 H 0.741937 44.686986 27.375829 H 0.0 **** 0.0
9283 O 42.491746 5.086112 8.460217 O 0.0 **** 0.0
9284 H 41.795233 5.670502 8.876656 H 0.0 **** 0.0
9285 H 42.366175 5.073067 7.468187 H 0.0 **** 0.0
9286 O 31.120985 13.244409 38.463279 O 0.0 **** 0.0
9287 H 31.47526 14.142067 38.725505 H 0.0 **** 0.0
9288 H 31.609297 12.532822 38.96851 H 0.0 **** 0.0
9289 O 1.536152 14.903378 28.067168 O 0.0 **** 0.0
9290 H 0.81044 14.483112 27.522391 H 0.0 **** 0.0
9291 H 1.651357 14.392856 28.919317 H 0.0 **** 0.0
9292 O 27.17325 14.052989 38.381439 O 0.0 **** 0.0
9293 H 27.282938 13.242699 38.957166 H 0.0 **** 0.0
9294 H 27.468377 13.842098 37.449511 H 0.0 **** 0.0
9295 O 19.948776 44.47385 19.983846 O 0.0 **** 0.0
9296 H 19.568944 43.550376 20.038496 H 0.0 **** 0.0
9297 H 20.947526 44.424658 19.995714 H 0.0 **** 0.0
9298 O 11.9623 16.798989 28.037975 O 0.0 **** 0.0
9299 H 12.226374 15.836123 28.0947 H 0.0 **** 0.0
9300 H 12.783438 17.367041 27.982196 H 0.0 **** 0.0
9301 O 45.719662 19.910692 18.321523 O 0.0 **** 0.0
9302 H 46.628572 19.846148 18.733566 H 0.0 **** 0.0
9303 H 45.493176 20.871722 18.16281 H 0.0 **** 0.0
9304 O 31.698037 46.792371 26.167672 O 0.0 **** 0.0
9305 H 30.872362 47.304546 25.931029 H 0.0 **** 0.0
9306 H 32.477378 47.417589 26.210016 H 0.0 **** 0.0
9307 O 10.534422 4.812276 32.229077 O 0.0 **** 0.0
9308 H 11.421867 4.366077 32.344886 H 0.0 **** 0.0
9309 H 10.618816 5.784157 32.44905 H 0.0 **** 0.0
9310 O 24.664032 35.632322 29.449103 O 0.0 **** 0.0
9311 H 23.815611 35.606963 29.977877 H 0.0 **** 0.0
9312 H 24.684591 36.462282 28.891602 H 0.0 **** 0.0
9313 O 34.793691 25.668906 18.514178 O 0.0 **** 0.0
9314 H 33.802578 25.553031 18.579997 H 0.0 **** 0.0
9315 H 35.212062 24.805849 18.231053 H 0.0 **** 0.0
9316 O 1.931624 14.908202 13.603487 O 0.0 **** 0.0
9317 H 1.554125 14.334912 14.330739 H 0.0 **** 0.0
9318 H 2.350237 15.722944 14.004762 H 0.0 **** 0.0
9319 O 32.278988 10.575139 6.476558 O 0.0 **** 0.0
9320 H 32.816928 10.809753 7.286274 H 0.0 **** 0.0
9321 H 31.587075 11.28007 6.320379 H 0.0 **** 0.0
9322 O 25.726364 34.506055 16.259715 O 0.0 **** 0.0
9323 H 26.090179 33.836028 16.906835 H 0.0 **** 0.0
9324 H 25.871477 35.428339 16.61804 H 0.0 **** 0.0
9325 O 24.660463 39.322206 32.177331 O 0.0 **** 0.0
9326 H 23.901446 38.708198 32.394013 H 0.0 **** 0.0
9327 H 25.408459 39.168196 32.822966 H 0.0 **** 0.0
9328 O 41.813164 45.125649 28.865454 O 0.0 **** 0.0
9329 H 41.310428 44.881818 29.694832 H 0.0 **** 0.0
9330 H 41.467889 44.587929 28.096231 H 0.0 **** 0.0
9331 O 44.07741 7.937854 5.130005 O 0.0 **** 0.0
9332 H 43.283101 7.345683 5.265908 H 0.0 **** 0.0
9333 H 44.194009 8.527664 5.929124 H 0.0 **** 0.0
9334 O 46.333324 5.054651 13.882884 O 0.0 **** 0.0
9335 H 45.681908 5.50679 14.49222 H 0.0 **** 0.0
9336 H 46.864788 4.384646 14.401248 H 0.0 **** 0.0
9337 O 10.307163 4.226746 42.596423 O 0.0 **** 0.0
9338 H 10.017544 3.368556 42.17252 H 0.0 **** 0.0
9339 H 11.248833 4.137041 42.920882 H 0.0 **** 0.0
9340 O 21.887394 22.671664 43.807492 O 0.0 **** 0.0
9341 H 21.669742 21.778054 44.200115 H 0.0 **** 0.0
9342 H 21.158208 23.319346 44.028531 H 0.0 **** 0.0
9343 O 35.819016 42.681611 41.304421 O 0.0 **** 0.0
9344 H 35.936632 41.688618 41.31836 H 0.0 **** 0.0
9345 H 34.8435 42.901677 41.302854 H 0.0 **** 0.0
9346 O 0.013097 26.459153 16.582998 O 0.0 **** 0.0
9347 H 0.133336 27.328318 17.062746 H 0.0 **** 0.0
9348 H 0.652238 26.410985 15.815377 H 0.0 **** 0.0
9349 O 27.195714 14.642249 20.58762 O 0.0 **** 0.0
9350 H 26.521791 13.930545 20.786036 H 0.0 **** 0.0
9351 H 26.758165 15.539866 20.641453 H 0.0 **** 0.0
9352 O 20.192606 32.413739 38.047686 O 0.0 **** 0.0
9353 H 21.166685 32.638727 38.072446 H 0.0 **** 0.0
9354 H 20.080718 31.420572 38.013588 H 0.0 **** 0.0
9355 O 7.975503 20.733898 23.282174 O 0.0 **** 0.0
9356 H 7.075566 20.685109 22.848818 H 0.0 **** 0.0
9357 H 8.653382 21.031729 22.609984 H 0.0 **** 0.0
9358 O 20.962806 43.088937 21.81681 O 0.0 **** 0.0
9359 H 20.129269 43.516572 22.166678 H 0.0 **** 0.0
9360 H 21.209979 42.314671 22.399459 H 0.0 **** 0.0
9361 O 22.767606 0.771797 32.937055 O 0.0 **** 0.0
9362 H 23.041688 1.64691 32.538157 H 0.0 **** 0.0
9363 H 23.564553 0.171272 33.002694 H 0.0 **** 0.0
9364 O 26.373363 14.776871 22.812626 O 0.0 **** 0.0
9365 H 26.375544 15.776897 22.814742 H 0.0 **** 0.0
9366 H 27.315471 14.44153 22.819086 H 0.0 **** 0.0
9367 O 31.260831 37.595575 31.749597 O 0.0 **** 0.0
9368 H 30.541866 38.194177 31.396288 H 0.0 **** 0.0
9369 H 30.939135 36.648719 31.743314 H 0.0 **** 0.0
9370 O 3.182031 6.678038 33.412154 O 0.0 **** 0.0
9371 H 3.971036 6.065134 33.368763 H 0.0 **** 0.0
9372 H 3.497792 7.620511 33.522159 H 0.0 **** 0.0
9373 O 12.093247 17.48739 18.820388 O 0.0 **** 0.0
9374 H 12.508455 17.978407 19.586265 H 0.0 **** 0.0
9375 H 12.422377 17.874085 17.958875 H 0.0 **** 0.0
9376 O 33.173233 46.131638 -0.001768 O 0.0 **** 0.0
9377 H 33.066222 46.850364 0.685287 H 0.0 **** 0.0
9378 H 33.672694 45.362002 0.396052 H 0.0 **** 0.0
9379 O 19.40031 38.658641 34.569186 O 0.0 **** 0.0
9380 H 18.943853 38.669405 33.67947 H 0.0 **** 0.0
9381 H 19.777039 37.748072 34.739487 H 0.0 **** 0.0
9382 O 34.24472 23.377759 4.741892 O 0.0 **** 0.0
9383 H 35.160326 23.463877 5.134718 H 0.0 **** 0.0
9384 H 34.298656 23.469842 3.747571 H 0.0 **** 0.0
9385 O 11.906402 32.936156 10.172174 O 0.0 **** 0.0
9386 H 12.34849 32.888104 11.067893 H 0.0 **** 0.0
9387 H 12.592158 33.136349 9.472371 H 0.0 **** 0.0
9388 O 46.62587 30.753996 5.44269 O 0.0 **** 0.0
9389 H 45.663139 30.489499 5.385658 H 0.0 **** 0.0
9390 H 46.69877 31.751295 5.430702 H 0.0 **** 0.0
9391 O 8.658695 40.70337 21.883113 O 0.0 **** 0.0
9392 H 9.605242 41.008117 21.777091 H 0.0 **** 0.0
9393 H 8.062691 41.259349 21.303692 H 0.0 **** 0.0
9394 O 47.200018 42.760253 29.824552 O 0.0 **** 0.0
9395 H 47.694905 42.765768 30.693528 H 0.0 **** 0.0
9396 H 47.842898 42.598004 29.075924 H 0.0 **** 0.0
9397 O 43.337309 11.853551 32.689748 O 0.0 **** 0.0
9398 H 44.080305 12.435268 32.358652 H 0.0 **** 0.0
9399 H 42.472059 12.159792 32.292732 H 0.0 **** 0.0
9400 O 19.055676 32.554525 34.187339 O 0.0 **** 0.0
9401 H 19.464173 32.55456 35.100133 H 0.0 **** 0.0
9402 H 18.7465 31.630908 33.960615 H 0.0 **** 0.0
9403 O 38.056992 45.916282 6.700832 O 0.0 **** 0.0
9404 H 37.130949 46.281907 6.794783 H 0.0 **** 0.0
9405 H 38.719003 46.60617 6.993847 H 0.0 **** 0.0
9406 O 24.398293 36.652833 9.692268 O 0.0 **** 0.0
9407 H 25.051477 35.949694 9.97335 H 0.0 **** 0.0
9408 H 24.894244 37.469238 9.396329 H 0.0 **** 0.0
9409 O 14.257429 19.555815 5.257926 O 0.0 **** 0.0
9410 H 13.268128 19.697976 5.224197 H 0.0 **** 0.0
9411 H 14.455795 18.577518 5.197515 H 0.0 **** 0.0
9412 O 28.794549 17.178679 35.754447 O 0.0 **** 0.0
9413 H 28.737377 16.330294 35.228104 H 0.0 **** 0.0
9414 H 27.8825 17.579768 35.840221 H 0.0 **** 0.0
9415 O 2.512281 5.816784 3.445423 O 0.0 **** 0.0
9416 H 2.535341 4.840351 3.660155 H 0.0 **** 0.0
9417 H 1.581255 6.080648 3.193172 H 0.0 **** 0.0
9418 O 12.269083 21.313781 9.197498 O 0.0 **** 0.0
9419 H 11.347226 20.927656 9.163598 H 0.0 **** 0.0
9420 H 12.83557 20.77009 9.816816 H 0.0 **** 0.0
9421 O 22.519454 36.165646 34.935366 O 0.0 **** 0.0
9422 H 21.878148 36.764165 35.415536 H 0.0 **** 0.0
9423 H 22.198021 36.014349 34.000565 H 0.0 **** 0.0
9424 O 3.638699 12.153249 32.926838 O 0.0 **** 0.0
9425 H 4.612597 12.132184 32.700695 H 0.0 **** 0.0
9426 H 3.289761 13.083273 32.811249 H 0.0 **** 0.0
9427 O 22.73488 14.736095 18.388605 O 0.0 **** 0.0
9428 H 21.765156 14.59881 18.186489 H 0.0 **** 0.0
9429 H 23.246354 14.811219 17.532559 H 0.0 **** 0.0
9430 O 38.751543 47.562986 11.83678 O 0.0 **** 0.0
9431 H 38.567826 46.708627 12.322971 H 0.0 **** 0.0
9432 H 39.24934 47.365438 10.992247 H 0.0 **** 0.0
9433 O 9.755438 37.870707 34.986997 O 0.0 **** 0.0
9434 H 8.923658 37.475626 35.377018 H 0.0 **** 0.0
9435 H 9.553828 38.780503 34.624108 H 0.0 **** 0.0
9436 O 28.174408 28.602912 41.950754 O 0.0 **** 0.0
9437 H 28.663996 27.732247 41.998795 H 0.0 **** 0.0
9438 H 28.832282 29.356044 41.958178 H 0.0 **** 0.0
9439 O 41.64535 43.518872 33.067846 O 0.0 **** 0.0
9440 H 41.600201 44.493276 32.847483 H 0.0 **** 0.0
9441 H 40.730939 43.186867 33.299552 H 0.0 **** 0.0
9442 O 6.189029 6.044222 14.329916 O 0.0 **** 0.0
9443 H 6.753714 5.223424 14.416431 H 0.0 **** 0.0
9444 H 6.502246 6.583341 13.548054 H 0.0 **** 0.0
9445 O 17.540138 18.211875 4.980814 O 0.0 **** 0.0
9446 H 16.973898 18.55377 5.730842 H 0.0 **** 0.0
9447 H 16.95462 17.95182 4.212958 H 0.0 **** 0.0
9448 O 19.789998 26.809364 1.855065 O 0.0 **** 0.0
9449 H 19.693108 27.800147 1.760069 H 0.0 **** 0.0
9450 H 20.760628 26.568867 1.865144 H 0.0 **** 0.0
9451 O 27.046599 41.706264 31.760876 O 0.0 **** 0.0
9452 H 26.693525 42.28233 31.023618 H 0.0 **** 0.0
9453 H 26.315805 41.113806 32.099987 H 0.0 **** 0.0
9454 O 41.930298 25.044777 13.110303 O 0.0 **** 0.0
9455 H 41.511943 25.85897 13.51296 H 0.0 **** 0.0
9456 H 41.218519 24.467986 12.70937 H 0.0 **** 0.0
9457 O 10.817736 42.859176 18.04068 O 0.0 **** 0.0
9458 H 10.995962 43.328712 17.175905 H 0.0 **** 0.0
9459 H 9.831142 42.753747 18.1655 H 0.0 **** 0.0
9460 O 12.154067 32.414928 22.332273 O 0.0 **** 0.0
9461 H 11.623853 31.904931 23.00965 H 0.0 **** 0.0
9462 H 12.941269 31.868969 22.045383 H 0.0 **** 0.0
9463 O 5.875542 28.033018 31.427816 O 0.0 **** 0.0
9464 H 5.130107 28.576179 31.814296 H 0.0 **** 0.0
9465 H 6.727977 28.251177 31.903025 H 0.0 **** 0.0
9466 O 15.097444 37.887551 11.876255 O 0.0 **** 0.0
9467 H 14.580057 38.595187 11.394981 H 0.0 **** 0.0
9468 H 16.074108 38.011016 11.700338 H 0.0 **** 0.0
9469 O 45.901259 38.936274 12.83329 O 0.0 **** 0.0
9470 H 45.375966 39.78599 12.879252 H 0.0 **** 0.0
9471 H 46.504004 38.959807 12.035664 H 0.0 **** 0.0
9472 O 8.211511 25.385034 16.632228 O 0.0 **** 0.0
9473 H 7.636302 24.653286 16.266519 H 0.0 **** 0.0
9474 H 7.896044 26.265455 16.278106 H 0.0 **** 0.0
9475 O 5.270785 30.643939 9.687814 O 0.0 **** 0.0
9476 H 6.200088 30.277005 9.645187 H 0.0 **** 0.0
9477 H 5.303738 31.641964 9.633736 H 0.0 **** 0.0
9478 O 3.284571 35.06294 24.216757 O 0.0 **** 0.0
9479 H 2.509328 34.433611 24.271571 H 0.0 **** 0.0
9480 H 3.370661 35.404966 23.280984 H 0.0 **** 0.0
9481 O 14.52197 0.365353 4.201682 O 0.0 **** 0.0
9482 H 13.747818 0.129554 3.614187 H 0.0 **** 0.0
9483 H 14.374552 -0.013583 5.115322 H 0.0 **** 0.0
9484 O 10.116597 30.958622 29.64788 O 0.0 **** 0.0
9485 H 10.889178 31.576315 29.500778 H 0.0 **** 0.0
9486 H 10.301184 30.082238 29.202976 H 0.0 **** 0.0
9487 O 33.425388 3.698153 44.544598 O 0.0 **** 0.0
9488 H 33.372225 4.314213 45.330542 H 0.0 **** 0.0
9489 H 34.232127 3.113858 44.633113 H 0.0 **** 0.0
9490 O 47.03706 25.225811 10.528216 O 0.0 **** 0.0
9491 H 47.347794 26.17579 10.495844 H 0.0 **** 0.0
9492 H 47.829248 24.615549 10.519101 H 0.0 **** 0.0
9493 O 36.378605 42.033638 3.932989 O 0.0 **** 0.0
9494 H 36.532958 41.759845 4.882345 H 0.0 **** 0.0
9495 H 36.792129 42.930038 3.773215 H 0.0 **** 0.0
9496 O 38.907643 6.517611 30.120727 O 0.0 **** 0.0
9497 H 39.423851 7.09304 30.755136 H 0.0 **** 0.0
9498 H 39.532207 5.888707 29.657624 H 0.0 **** 0.0
9499 O 25.332229 20.186982 23.098153 O 0.0 **** 0.0
9500 H 25.056532 21.142052 22.989087 H 0.0 **** 0.0
9501 H 25.21435 19.912997 24.052669 H 0.0 **** 0.0
9502 O 25.572865 31.75631 35.231576 O 0.0 **** 0.0
9503 H 26.557696 31.929994 35.2334 H 0.0 **** 0.0
9504 H 25.366204 31.002684 35.855597 H 0.0 **** 0.0
9505 O 25.078703 34.947729 18.84807 O 0.0 **** 0.0
9506 H 25.052863 35.939056 18.977168 H 0.0 **** 0.0
9507 H 25.731128 34.544933 19.490067 H 0.0 **** 0.0
9508 O 44.217733 23.573487 15.53159 O 0.0 **** 0.0
9509 H 43.879973 22.76448 16.012723 H 0.0 **** 0.0
9510 H 45.193014 23.464019 15.33948 H 0.0 **** 0.0
9511 O 15.770847 7.589708 40.724857 O 0.0 **** 0.0
9512 H 15.224443 6.766643 40.569715 H 0.0 **** 0.0
9513 H 16.736054 7.384437 40.562676 H 0.0 **** 0.0
9514 O 43.37089 21.536287 1.248634 O 0.0 **** 0.0
9515 H 44.011383 22.304281 1.252617 H 0.0 **** 0.0
9516 H 42.433382 21.884124 1.260988 H 0.0 **** 0.0
9517 O 4.815709 5.92369 37.853377 O 0.0 **** 0.0
9518 H 4.046911 5.303046 38.007697 H 0.0 **** 0.0
9519 H 5.662818 5.486507 38.155602 H 0.0 **** 0.0
9520 O 43.775343 7.128143 20.543118 O 0.0 **** 0.0
9521 H 44.739108 7.394533 20.527077 H 0.0 **** 0.0
9522 H 43.554107 6.627062 19.706437 H 0.0 **** 0.0
9523 O 29.287208 42.311965 0.440097 O 0.0 **** 0.0
9524 H 29.132613 43.29973 0.462127 H 0.0 **** 0.0
9525 H 29.563421 41.997529 1.348336 H 0.0 **** 0.0
9526 O 6.577416 34.828377 10.229734 O 0.0 **** 0.0
9527 H 6.962215 33.905462 10.244621 H 0.0 **** 0.0
9528 H 7.315332 35.49551 10.12737 H 0.0 **** 0.0
9529 O 34.488656 11.892403 2.182795 O 0.0 **** 0.0
9530 H 33.634083 12.275379 1.831943 H 0.0 **** 0.0
9531 H 34.387912 10.904334 2.299562 H 0.0 **** 0.0
9532 O 41.007746 4.02801 25.884907 O 0.0 **** 0.0
9533 H 41.710257 4.709486 26.090169 H 0.0 **** 0.0
9534 H 40.258537 4.462007 25.384512 H 0.0 **** 0.0
9535 O 22.040452 0.800461 10.78725 O 0.0 **** 0.0
9536 H 21.223059 0.768857 10.211983 H 0.0 **** 0.0
9537 H 22.202553 1.741409 11.08458 H 0.0 **** 0.0
9538 O 29.07646 31.597692 2.349758 O 0.0 **** 0.0
9539 H 29.008732 32.452797 2.863831 H 0.0 **** 0.0
9540 H 29.98054 31.533606 1.927153 H 0.0 **** 0.0
9541 O 3.9113 3.832799 14.250991 O 0.0 **** 0.0
9542 H 3.050003 3.895325 13.746689 H 0.0 **** 0.0
9543 H 4.219651 4.75118 14.499101 H 0.0 **** 0.0
9544 O 25.517332 32.385622 44.259183 O 0.0 **** 0.0
9545 H 24.86894 31.677238 43.980179 H 0.0 **** 0.0
9546 H 25.036673 33.256917 44.358557 H 0.0 **** 0.0
9547 O 17.826204 14.677047 33.908362 O 0.0 **** 0.0
9548 H 18.491476 15.423595 33.89642 H 0.0 **** 0.0
9549 H 16.900577 15.055543 33.912684 H 0.0 **** 0.0
9550 O 32.134701 16.029715 39.640367 O 0.0 **** 0.0
9551 H 31.141739 16.134612 39.695933 H 0.0 **** 0.0
9552 H 32.560489 16.461913 40.435334 H 0.0 **** 0.0
9553 O 17.694852 33.775526 6.024107 O 0.0 **** 0.0
9554 H 18.503181 33.512524 5.497327 H 0.0 **** 0.0
9555 H 17.161885 32.959118 6.246564 H 0.0 **** 0.0
9556 O 5.568044 16.406804 6.297414 O 0.0 **** 0.0
9557 H 6.105425 17.241387 6.175931 H 0.0 **** 0.0
9558 H 4.761352 16.441002 5.70738 H 0.0 **** 0.0
9559 O 25.144325 33.71393 11.913766 O 0.0 **** 0.0
9560 H 25.823871 32.980309 11.922713 H 0.0 **** 0.0
9561 H 25.609591 34.599031 11.900074 H 0.0 **** 0.0
9562 O 5.160824 3.371209 21.633958 O 0.0 **** 0.0
9563 H 6.050479 3.786407 21.443728 H 0.0 **** 0.0
9564 H 5.284068 2.577169 22.229253 H 0.0 **** 0.0
9565 O 5.842168 7.875036 28.419653 O 0.0 **** 0.0
9566 H 4.93652 7.725 28.022975 H 0.0 **** 0.0
9567 H 6.496743 8.0738 27.69021 H 0.0 **** 0.0
9568 O 40.23101 0.580876 13.178628 O 0.0 **** 0.0
9569 H 39.900694 0.373439 14.099456 H 0.0 **** 0.0
9570 H 39.451766 0.752737 12.57588 H 0.0 **** 0.0
9571 O 8.824856 32.478776 4.811483 O 0.0 **** 0.0
9572 H 8.735585 33.465924 4.944265 H 0.0 **** 0.0
9573 H 7.971645 32.114175 4.438442 H 0.0 **** 0.0
9574 O 20.798615 3.246729 9.748177 O 0.0 **** 0.0
9575 H 21.098593 4.200246 9.718499 H 0.0 **** 0.0
9576 H 19.799276 3.211245 9.736984 H 0.0 **** 0.0
9577 O 20.684322 14.039527 33.869751 O 0.0 **** 0.0
9578 H 21.198188 13.182518 33.909001 H 0.0 **** 0.0
9579 H 20.784736 14.528315 34.736392 H 0.0 **** 0.0
9580 O 22.784547 14.959267 22.675395 O 0.0 **** 0.0
9581 H 23.761805 14.831552 22.505926 H 0.0 **** 0.0
9582 H 22.589331 15.934305 22.78148 H 0.0 **** 0.0
9583 O 45.772775 30.074908 3.060714 O 0.0 **** 0.0
9584 H 45.900155 29.219483 3.562794 H 0.0 **** 0.0
9585 H 46.219324 30.007325 2.168475 H 0.0 **** 0.0
9586 O 16.329125 27.705467 24.631297 O 0.0 **** 0.0
9587 H 15.485017 28.218177 24.788372 H 0.0 **** 0.0
9588 H 16.192157 26.749912 24.892483 H 0.0 **** 0.0
9589 O 20.409377 19.760984 44.229357 O 0.0 **** 0.0
9590 H 19.705487 19.053423 44.292275 H 0.0 **** 0.0
9591 H 21.313574 19.334238 44.248828 H 0.0 **** 0.0
9592 O 11.826513 43.944699 13.616669 O 0.0 **** 0.0
9593 H 12.659442 43.723203 14.12385 H 0.0 **** 0.0
9594 H 11.888424 43.56683 12.692848 H 0.0 **** 0.0
9595 O 38.309053 15.945783 35.761907 O 0.0 **** 0.0
9596 H 39.074118 15.336675 35.971015 H 0.0 **** 0.0
9597 H 37.756637 16.081452 36.5844 H 0.0 **** 0.0
9598 O 15.082444 17.893224 40.058092 O 0.0 **** 0.0
9599 H 15.038809 16.947561 39.735789 H 0.0 **** 0.0
9600 H 14.973274 18.515025 39.282522 H 0.0 **** 0.0
9601 O 28.343523 28.251474 36.294639 O 0.0 **** 0.0
9602 H 27.90127 27.371446 36.467924 H 0.0 **** 0.0
9603 H 29.074958 28.13046 35.623505 H 0.0 **** 0.0
9604 O 25.147047 43.447763 32.067597 O 0.0 **** 0.0
9605 H 24.401252 42.88747 31.707146 H 0.0 **** 0.0
9606 H 25.261841 44.258831 31.493964 H 0.0 **** 0.0
9607 O 9.843232 12.438484 33.487261 O 0.0 **** 0.0
9608 H 10.784464 12.677013 33.247991 H 0.0 **** 0.0
9609 H 9.346775 12.17163 32.661196 H 0.0 **** 0.0
9610 O 27.765045 20.552193 24.683098 O 0.0 **** 0.0
9611 H 27.425374 20.046215 23.89021 H 0.0 **** 0.0
9612 H 28.462583 20.009427 25.150976 H 0.0 **** 0.0
9613 O 0.373871 36.93813 30.172923 O 0.0 **** 0.0
9614 H 0.644727 36.390415 30.964572 H 0.0 **** 0.0
9615 H 1.188404 37.326632 29.742033 H 0.0 **** 0.0
9616 O 41.269902 25.515544 23.009412 O 0.0 **** 0.0
9617 H 40.523406 26.146132 22.796887 H 0.0 **** 0.0
9618 H 42.028962 26.023052 23.417243 H 0.0 **** 0.0
9619 O 0.734015 28.277671 29.272735 O 0.0 **** 0.0
9620 H 0.922971 27.522594 28.644867 H 0.0 **** 0.0
9621 H -0.000171 28.014767 29.898767 H 0.0 **** 0.0
9622 O 16.474512 34.52512 20.969515 O 0.0 **** 0.0
9623 H 15.528546 34.402918 21.269979 H 0.0 **** 0.0
9624 H 16.859155 33.638991 20.710887 H 0.0 **** 0.0
9625 O 45.766212 27.580998 31.425496 O 0.0 **** 0.0
9626 H 46.432795 27.028204 30.925348 H 0.0 **** 0.0
9627 H 44.986428 27.780537 30.832044 H 0.0 **** 0.0
9628 O 29.283853 38.139802 15.853242 O 0.0 **** 0.0
9629 H 28.703005 38.84967 15.454786 H 0.0 **** 0.0
9630 H 29.630878 37.546522 15.126843 H 0.0 **** 0.0
9631 O 29.125787 10.957334 13.773768 O 0.0 **** 0.0
9632 H 29.969166 11.493823 13.742885 H 0.0 **** 0.0
9633 H 28.339499 11.574223 13.809307 H 0.0 **** 0.0
9634 O 11.645194 18.783707 48.004773 O 0.0 **** 0.0
9635 H 12.180435 19.628437 48.008231 H 0.0 **** 0.0
9636 H 12.263235 17.997607 47.99322 H 0.0 **** 0.0
9637 O 14.803497 1.310997 19.786771 O 0.0 **** 0.0
9638 H 14.525823 0.355035 19.882146 H 0.0 **** 0.0
9639 H 14.753443 1.763028 20.677403 H 0.0 **** 0.0
9640 O 15.753287 -0.003242 22.837393 O 0.0 **** 0.0
9641 H 16.128468 0.776437 23.338793 H 0.0 **** 0.0
9642 H 16.019713 0.059637 21.875558 H 0.0 **** 0.0
9643 O 27.270808 7.982602 5.558825 O 0.0 **** 0.0
9644 H 28.068189 8.360058 5.087897 H 0.0 **** 0.0
9645 H 26.471487 8.042122 4.960823 H 0.0 **** 0.0
9646 O 27.812618 6.53287 19.208066 O 0.0 **** 0.0
9647 H 28.484421 6.787581 19.90367 H 0.0 **** 0.0
9648 H 27.561112 5.571916 19.323714 H 0.0 **** 0.0
9649 O 32.203624 44.300492 17.420122 O 0.0 **** 0.0
9650 H 32.616061 43.613639 16.821631 H 0.0 **** 0.0
9651 H 32.921981 44.768616 17.934793 H 0.0 **** 0.0
9652 O 23.530808 7.719036 17.821569 O 0.0 **** 0.0
9653 H 23.108561 7.719873 16.915054 H 0.0 **** 0.0
9654 H 22.985795 8.281263 18.443602 H 0.0 **** 0.0
9655 O 37.025732 38.211494 31.968954 O 0.0 **** 0.0
9656 H 37.432203 38.106514 32.876602 H 0.0 **** 0.0
9657 H 36.26332 38.856786 32.017828 H 0.0 **** 0.0
9658 O 36.192216 8.275435 22.868812 O 0.0 **** 0.0
9659 H 36.796085 7.522206 23.129679 H 0.0 **** 0.0
9660 H 36.716577 8.965494 22.369887 H 0.0 **** 0.0
9661 O 17.896463 2.973171 24.556276 O 0.0 **** 0.0
9662 H 17.525805 2.049433 24.459414 H 0.0 **** 0.0
9663 H 17.253737 3.537537 25.074404 H 0.0 **** 0.0
9664 O 2.272447 2.755571 29.858219 O 0.0 **** 0.0
9665 H 2.806588 1.976386 30.186284 H 0.0 **** 0.0
9666 H 1.475107 2.424286 29.353678 H 0.0 **** 0.0
9667 O 36.995734 29.894868 30.401077 O 0.0 **** 0.0
9668 H 36.259882 29.669934 31.039818 H 0.0 **** 0.0
9669 H 36.841035 30.807427 30.022439 H 0.0 **** 0.0
9670 O 16.79246 29.738627 20.978615 O 0.0 **** 0.0
9671 H 16.493528 30.691346 21.033655 H 0.0 **** 0.0
9672 H 17.607993 29.677945 20.40304 H 0.0 **** 0.0
9673 O 42.27531 43.289214 21.992166 O 0.0 **** 0.0
9674 H 41.585192 43.861982 22.434589 H 0.0 **** 0.0
9675 H 43.175177 43.494076 22.377307 H 0.0 **** 0.0
9676 O 2.543565 28.866456 15.063126 O 0.0 **** 0.0
9677 H 3.388994 28.461472 14.714842 H 0.0 **** 0.0
9678 H 1.947678 28.143926 15.413742 H 0.0 **** 0.0
9679 O 44.732259 38.541916 40.231095 O 0.0 **** 0.0
9680 H 45.616273 39.007353 40.275263 H 0.0 **** 0.0
9681 H 44.870275 37.55537 40.319078 H 0.0 **** 0.0
9682 O 6.479684 42.770896 21.627861 O 0.0 **** 0.0
9683 H 5.977607 41.906037 21.627733 H 0.0 **** 0.0
9684 H 5.848428 43.522747 21.437335 H 0.0 **** 0.0
9685 O 1.2307 3.883623 11.004742 O 0.0 **** 0.0
9686 H 1.601323 3.24187 11.676199 H 0.0 **** 0.0
9687 H 0.23706 3.934523 11.105493 H 0.0 **** 0.0
9688 O 44.730204 6.878471 24.992553 O 0.0 **** 0.0
9689 H 43.961578 7.182426 24.429626 H 0.0 **** 0.0
9690 H 44.657989 7.285661 25.903072 H 0.0 **** 0.0
9691 O 1.318424 45.730828 11.33826 O 0.0 **** 0.0
9692 H 2.094444 45.376609 11.860164 H 0.0 **** 0.0
9693 H 1.013615 45.039169 10.683461 H 0.0 **** 0.0
9694 O 27.906117 40.165098 23.808329 O 0.0 **** 0.0
9695 H 28.884543 39.995439 23.926492 H 0.0 **** 0.0
9696 H 27.45121 39.316935 23.536773 H 0.0 **** 0.0
9697 O 26.457197 12.720345 26.061975 O 0.0 **** 0.0
9698 H 26.896805 12.854534 26.950119 H 0.0 **** 0.0
9699 H 26.66017 13.499274 25.468565 H 0.0 **** 0.0
9700 O 26.787042 14.83309 3.979126 O 0.0 **** 0.0
9701 H 27.297132 15.118312 3.167634 H 0.0 **** 0.0
9702 H 26.793672 15.571474 4.653521 H 0.0 **** 0.0
9703 O 41.258978 23.766541 14.793062 O 0.0 **** 0.0
9704 H 41.408399 22.856783 14.405666 H 0.0 **** 0.0
9705 H 42.123008 24.123645 15.148015 H 0.0 **** 0.0
9706 O 47.674932 3.254717 17.007488 O 0.0 **** 0.0
9707 H 47.164911 3.590998 17.799231 H 0.0 **** 0.0
9708 H 47.228935 2.435335 16.647261 H 0.0 **** 0.0
9709 O 41.066415 7.52986 12.517027 O 0.0 **** 0.0
9710 H 40.436802 8.306123 12.484378 H 0.0 **** 0.0
9711 H 40.543956 6.679302 12.577447 H 0.0 **** 0.0
9712 O 44.773403 39.205905 10.634869 O 0.0 **** 0.0
9713 H 43.930331 39.385462 11.141872 H 0.0 **** 0.0
9714 H 44.596053 38.525827 9.923459 H 0.0 **** 0.0
9715 O 37.73489 47.990758 43.129757 O 0.0 **** 0.0
9716 H 36.816846 48.014034 43.525631 H 0.0 **** 0.0
9717 H 38.397494 47.749008 43.838683 H 0.0 **** 0.0
9718 O 13.997591 38.943363 13.490398 O 0.0 **** 0.0
9719 H 13.100371 39.31768 13.255995 H 0.0 **** 0.0
9720 H 14.657299 39.689699 13.578899 H 0.0 **** 0.0
9721 O 42.36669 39.405817 6.029331 O 0.0 **** 0.0
9722 H 43.3399 39.181572 6.080702 H 0.0 **** 0.0
9723 H 41.833148 38.562289 5.967232 H 0.0 **** 0.0
9724 O 35.23768 7.200151 6.561947 O 0.0 **** 0.0
9725 H 35.361542 6.211515 6.476393 H 0.0 **** 0.0
9726 H 34.728486 7.54183 5.771985 H 0.0 **** 0.0
9727 O 46.79247 46.028377 38.631797 O 0.0 **** 0.0
9728 H 46.164582 45.487992 39.191977 H 0.0 **** 0.0
9729 H 46.534066 46.993338 38.678069 H 0.0 **** 0.0
9730 O 43.507106 31.818989 29.496541 O 0.0 **** 0.0
9731 H 42.582893 32.155347 29.67753 H 0.0 **** 0.0
9732 H 43.501692 30.81903 29.485814 H 0.0 **** 0.0
9733 O 35.345553 4.25204 33.396013 O 0.0 **** 0.0
9734 H 34.977994 3.329653 33.515039 H 0.0 **** 0.0
9735 H 36.094473 4.229463 32.73369 H 0.0 **** 0.0
9736 O 4.46275 29.278442 2.439973 O 0.0 **** 0.0
9737 H 3.561245 29.68864 2.301805 H 0.0 **** 0.0
9738 H 4.436291 28.316343 2.168444 H 0.0 **** 0.0
9739 O 11.329539 1.930804 43.242073 O 0.0 **** 0.0
9740 H 11.28614 0.938767 43.360569 H 0.0 **** 0.0
9741 H 12.285964 2.220181 43.202396 H 0.0 **** 0.0
9742 O 5.550628 30.726927 32.060466 O 0.0 **** 0.0
9743 H 4.868167 31.443387 32.205361 H 0.0 **** 0.0
9744 H 6.406714 30.986854 32.507252 H 0.0 **** 0.0
9745 O 5.530121 21.354869 4.827572 O 0.0 **** 0.0
9746 H 5.983644 20.948422 4.034362 H 0.0 **** 0.0
9747 H 4.560888 21.492252 4.623178 H 0.0 **** 0.0
9748 O 4.848952 36.590032 43.492511 O 0.0 **** 0.0
9749 H 4.279826 37.351748 43.182756 H 0.0 **** 0.0
9750 H 5.657703 36.946902 43.960088 H 0.0 **** 0.0
9751 O 3.531963 38.853793 23.202472 O 0.0 **** 0.0
9752 H 3.822096 39.80092 23.339715 H 0.0 **** 0.0
9753 H 2.543242 38.826142 23.05506 H 0.0 **** 0.0
9754 O 24.261422 2.610041 6.12607 O 0.0 **** 0.0
9755 H 23.263037 2.553762 6.114975 H 0.0 **** 0.0
9756 H 24.636765 2.013253 5.416827 H 0.0 **** 0.0
9757 O 5.72585 31.836505 19.802909 O 0.0 **** 0.0
9758 H 5.018629 31.169859 20.03846 H 0.0 **** 0.0
9759 H 6.530084 31.686469 20.378026 H 0.0 **** 0.0
9760 O 23.906546 40.264392 21.82322 O 0.0 **** 0.0
9761 H 24.852846 39.958557 21.928313 H 0.0 **** 0.0
9762 H 23.291368 39.480877 21.911096 H 0.0 **** 0.0
9763 O 9.786523 16.258482 11.399668 O 0.0 **** 0.0
9764 H 9.32969 17.070185 11.035657 H 0.0 **** 0.0
9765 H 10.447646 16.533107 12.097924 H 0.0 **** 0.0
9766 O 39.443093 3.444514 10.438758 O 0.0 **** 0.0
9767 H 38.57179 3.867257 10.688122 H 0.0 **** 0.0
9768 H 39.903291 3.117691 11.264269 H 0.0 **** 0.0
9769 O 43.119691 19.894612 34.886323 O 0.0 **** 0.0
9770 H 43.004408 20.887968 34.882114 H 0.0 **** 0.0
9771 H 42.222775 19.455224 34.936736 H 0.0 **** 0.0
9772 O 27.917578 30.882379 36.608807 O 0.0 **** 0.0
9773 H 27.252871 30.135693 36.582611 H 0.0 **** 0.0
9774 H 28.786419 30.542638 36.969022 H 0.0 **** 0.0
9775 O 12.059316 19.21528 26.207617 O 0.0 **** 0.0
9776 H 12.610032 19.54548 25.440973 H 0.0 **** 0.0
9777 H 11.945499 18.22449 26.133843 H 0.0 **** 0.0
9778 O 10.216538 18.820157 8.779112 O 0.0 **** 0.0
9779 H 9.537459 18.421401 8.162745 H 0.0 **** 0.0
9780 H 11.084214 18.928402 8.293844 H 0.0 **** 0.0
9781 O 35.652285 27.586799 32.792596 O 0.0 **** 0.0
9782 H 34.775398 27.588968 33.273353 H 0.0 **** 0.0
9783 H 36.227244 28.32537 33.14473 H 0.0 **** 0.0
9784 O 35.736358 37.482313 29.646221 O 0.0 **** 0.0
9785 H 35.570936 38.411183 29.97773 H 0.0 **** 0.0
9786 H 36.483494 37.070378 30.167911 H 0.0 **** 0.0
9787 O 9.811541 1.117335 13.011119 O 0.0 **** 0.0
9788 H 9.926784 0.493494 13.784168 H 0.0 **** 0.0
9789 H 9.514172 2.01151 13.345911 H 0.0 **** 0.0
9790 O 9.600452 45.842853 30.300497 O 0.0 **** 0.0
9791 H 10.276376 45.12137 30.149989 H 0.0 **** 0.0
9792 H 8.847251 45.484122 30.851915 H 0.0 **** 0.0
9793 O 42.17714 19.811197 41.354854 O 0.0 **** 0.0
9794 H 41.3255 19.28828 41.318375 H 0.0 **** 0.0
9795 H 42.948704 19.184364 41.463626 H 0.0 **** 0.0
9796 O 12.483256 0.887225 21.448004 O 0.0 **** 0.0
9797 H 12.245098 -0.000359 21.053619 H 0.0 **** 0.0
9798 H 13.301751 0.791374 22.014521 H 0.0 **** 0.0
9799 O 44.472896 20.903008 44.843857 O 0.0 **** 0.0
9800 H 44.018113 20.024757 44.991881 H 0.0 **** 0.0
9801 H 43.81101 21.566391 44.494726 H 0.0 **** 0.0
9802 O 26.874188 24.196337 42.138821 O 0.0 **** 0.0
9803 H 27.297613 24.663675 42.914946 H 0.0 **** 0.0
9804 H 27.517169 24.171976 41.373286 H 0.0 **** 0.0
9805 O 24.499388 30.029471 34.077923 O 0.0 **** 0.0
9806 H 24.686725 30.788391 33.454218 H 0.0 **** 0.0
9807 H 24.485067 29.171623 33.564157 H 0.0 **** 0.0
9808 O 41.390352 27.923861 20.439248 O 0.0 **** 0.0
9809 H 40.509913 28.172654 20.84297 H 0.0 **** 0.0
9810 H 41.824039 27.215411 20.996093 H 0.0 **** 0.0
9811 O 7.214961 13.275379 40.02927 O 0.0 **** 0.0
9812 H 7.253243 13.769902 39.160912 H 0.0 **** 0.0
9813 H 6.497174 12.580437 39.985669 H 0.0 **** 0.0
9814 O 1.815499 27.754585 40.78634 O 0.0 **** 0.0
9815 H 2.5298 27.122204 40.486454 H 0.0 **** 0.0
9816 H 2.236207 28.549307 41.22393 H 0.0 **** 0.0
9817 O 18.181341 7.057462 1.75649 O 0.0 **** 0.0
9818 H 19.023121 6.669772 1.380771 H 0.0 **** 0.0
9819 H 18.370235 7.965982 2.129283 H 0.0 **** 0.0
9820 O 8.211266 42.947648 15.793643 O 0.0 **** 0.0
9821 H 9.024681 43.354492 16.209452 H 0.0 **** 0.0
9822 H 8.061583 42.036135 16.176791 H 0.0 **** 0.0
9823 O 11.235653 39.217631 37.573411 O 0.0 **** 0.0
9824 H 12.115258 38.785754 37.773014 H 0.0 **** 0.0
9825 H 11.219771 39.515897 36.619028 H 0.0 **** 0.0
9826 O 39.458699 44.282855 35.471628 O 0.0 **** 0.0
9827 H 40.437665 44.195064 35.287286 H 0.0 **** 0.0
9828 H 39.158702 45.209541 35.245091 H 0.0 **** 0.0
9829 O 22.962387 8.45161 20.968054 O 0.0 **** 0.0
9830 H 22.158048 8.060493 20.520696 H 0.0 **** 0.0
9831 H 22.80044 8.51003 21.953155 H 0.0 **** 0.0
9832 O 26.17668 5.142297 39.926318 O 0.0 **** 0.0
9833 H 26.725677 4.388342 40.287176 H 0.0 **** 0.0
9834 H 26.758298 5.945197 39.795416 H 0.0 **** 0.0
9835 O 1.069662 6.095353 33.728705 O 0.0 **** 0.0
9836 H 1.524832 5.211211 33.834421 H 0.0 **** 0.0
9837 H 0.128397 5.951206 33.423245 H 0.0 **** 0.0
9838 O 20.124364 25.301579 3.746001 O 0.0 **** 0.0
9839 H 20.266009 25.825002 4.586256 H 0.0 **** 0.0
9840 H 19.163014 25.357846 3.476366 H 0.0 **** 0.0
9841 O 5.793307 6.634031 25.580135 O 0.0 **** 0.0
9842 H 6.634246 7.169019 25.498451 H 0.0 **** 0.0
9843 H 5.695471 6.308444 26.520606 H 0.0 **** 0.0
9844 O 43.989035 7.492255 47.445676 O 0.0 **** 0.0
9845 H 43.953735 6.917469 46.628095 H 0.0 **** 0.0
9846 H 43.988916 8.455313 47.176263 H 0.0 **** 0.0
9847 O 42.195384 10.021681 35.624686 O 0.0 **** 0.0
9848 H 41.727006 10.339825 36.448985 H 0.0 **** 0.0
9849 H 42.864669 9.320717 35.871203 H 0.0 **** 0.0
9850 O 31.964462 40.858858 26.402747 O 0.0 **** 0.0
9851 H 30.981094 40.677183 26.396093 H 0.0 **** 0.0
9852 H 32.121671 41.83758 26.534849 H 0.0 **** 0.0
9853 O 43.186451 28.171112 43.776045 O 0.0 **** 0.0
9854 H 44.167807 28.020871 43.896174 H 0.0 **** 0.0
9855 H 42.791707 27.405188 43.268502 H 0.0 **** 0.0
9856 O 20.644488 44.332761 34.532608 O 0.0 **** 0.0
9857 H 19.942029 44.377465 35.242971 H 0.0 **** 0.0
9858 H 20.802033 43.378258 34.279297 H 0.0 **** 0.0
9859 O 6.852006 25.516477 21.055691 O 0.0 **** 0.0
9860 H 6.699876 26.474988 21.296888 H 0.0 **** 0.0
9861 H 7.664168 25.178063 21.531013 H 0.0 **** 0.0
9862 O 4.203868 25.135146 19.061177 O 0.0 **** 0.0
9863 H 4.142279 24.62412 19.918569 H 0.0 **** 0.0
9864 H 4.772429 25.946549 19.196918 H 0.0 **** 0.0
9865 O 46.751472 42.556409 25.132729 O 0.0 **** 0.0
9866 H 45.925147 43.080962 24.927563 H 0.0 **** 0.0
9867 H 47.021957 42.718334 26.081771 H 0.0 **** 0.0
9868 O 45.546628 29.806293 26.063596 O 0.0 **** 0.0
9869 H 45.464794 30.785314 25.876822 H 0.0 **** 0.0
9870 H 46.510667 29.569534 26.184584 H 0.0 **** 0.0
9871 O 5.908775 35.304776 28.703389 O 0.0 **** 0.0
9872 H 4.928256 35.172116 28.558309 H 0.0 **** 0.0
9873 H 6.145816 36.259841 28.525276 H 0.0 **** 0.0
9874 O 46.506895 16.928748 12.027637 O 0.0 **** 0.0
9875 H 46.060512 16.038204 11.939671 H 0.0 **** 0.0
9876 H 45.942439 17.530058 12.593215 H 0.0 **** 0.0
9877 O 10.323738 31.422342 35.327923 O 0.0 **** 0.0
9878 H 10.79813 30.745166 35.89046 H 0.0 **** 0.0
9879 H 9.370258 31.490566 35.621665 H 0.0 **** 0.0
9880 O 46.54749 33.481176 29.154978 O 0.0 **** 0.0
9881 H 45.58306 33.56732 28.904945 H 0.0 **** 0.0
9882 H 47.069101 33.158939 28.364947 H 0.0 **** 0.0
9883 O 16.944324 17.78179 34.777647 O 0.0 **** 0.0
9884 H 16.357586 16.997751 34.980339 H 0.0 **** 0.0
9885 H 17.82888 17.458075 34.441742 H 0.0 **** 0.0
9886 O 41.805524 37.923855 36.027446 O 0.0 **** 0.0
9887 H 41.028201 38.224631 36.580045 H 0.0 **** 0.0
9888 H 41.851031 36.924871 36.032082 H 0.0 **** 0.0
9889 O 37.810977 20.612909 28.792482 O 0.0 **** 0.0
9890 H 37.713576 21.59455 28.95667 H 0.0 **** 0.0
9891 H 36.905728 20.20115 28.687395 H 0.0 **** 0.0
9892 O 31.127082 -0.003263 0.725385 O 0.0 **** 0.0
9893 H 31.987946 0.451328 0.954125 H 0.0 **** 0.0
9894 H 30.414911 0.684106 0.582558 H 0.0 **** 0.0
9895 O 19.445195 46.165443 7.05047 O 0.0 **** 0.0
9896 H 19.651464 45.607262 6.24676 H 0.0 **** 0.0
9897 H 18.660362 46.753641 6.855217 H 0.0 **** 0.0
9898 O 12.114499 25.611371 28.820153 O 0.0 **** 0.0
9899 H 12.321966 24.775645 28.311642 H 0.0 **** 0.0
9900 H 11.98466 25.389846 29.786658 H 0.0 **** 0.0
9901 O 11.083091 18.122028 43.466913 O 0.0 **** 0.0
9902 H 10.162149 18.501306 43.377034 H 0.0 **** 0.0
9903 H 11.730441 18.860194 43.656947 H 0.0 **** 0.0
9904 O 8.923335 19.32782 26.624186 O 0.0 **** 0.0
9905 H 8.256272 19.706386 25.982487 H 0.0 **** 0.0
9906 H 9.829751 19.328516 26.201726 H 0.0 **** 0.0
9907 O 9.051194 43.214621 12.961696 O 0.0 **** 0.0
9908 H 9.686586 43.853773 12.528309 H 0.0 **** 0.0
9909 H 9.125843 42.320084 12.520908 H 0.0 **** 0.0
9910 O 15.660612 46.594599 0.004804 O 0.0 **** 0.0
9911 H 16.47476 46.013911 -0.000573 H 0.0 **** 0.0
9912 H 14.841792 46.020499 0.007388 H 0.0 **** 0.0
9913 O 10.380442 47.426013 39.201443 O 0.0 **** 0.0
9914 H 9.563232 48.000061 39.149481 H 0.0 **** 0.0
9915 H 11.196112 48.000118 39.129684 H 0.0 **** 0.0
9916 O 32.161962 12.267215 26.049285 O 0.0 **** 0.0
9917 H 31.707177 13.106281 26.347952 H 0.0 **** 0.0
9918 H 33.096007 12.478747 25.7614 H 0.0 **** 0.0
9919 O 33.292905 11.450416 19.210433 O 0.0 **** 0.0
9920 H 32.659333 12.219948 19.290869 H 0.0 **** 0.0
9921 H 34.05367 11.706036 18.613812 H 0.0 **** 0.0
9922 O 5.538576 35.515646 1.723195 O 0.0 **** 0.0
9923 H 6.526874 35.376606 1.786438 H 0.0 **** 0.0
9924 H 5.068877 34.647807 1.885369 H 0.0 **** 0.0
9925 O 32.648202 23.975251 8.726206 O 0.0 **** 0.0
9926 H 33.158276 24.804236 8.955707 H 0.0 **** 0.0
9927 H 32.735309 23.313464 9.470864 H 0.0 **** 0.0
9928 O 27.569925 39.58173 10.372458 O 0.0 **** 0.0
9929 H 26.811283 40.223972 10.262682 H 0.0 **** 0.0
9930 H 27.828942 39.215954 9.478489 H 0.0 **** 0.0
9931 O 20.606552 36.156501 29.762943 O 0.0 **** 0.0
9932 H 20.294616 35.555635 29.026927 H 0.0 **** 0.0
9933 H 21.544642 35.917217 30.013529 H 0.0 **** 0.0
9934 O 20.805033 35.97559 13.794481 O 0.0 **** 0.0
9935 H 21.618382 36.556913 13.818782 H 0.0 **** 0.0
9936 H 19.985806 36.548988 13.782431 H 0.0 **** 0.0
9937 O 12.086263 29.801445 9.935481 O 0.0 **** 0.0
9938 H 11.179911 29.576947 9.577443 H 0.0 **** 0.0
9939 H 12.172221 29.45133 10.868269 H 0.0 **** 0.0
9940 O 6.064841 7.243877 44.673885 O 0.0 **** 0.0
9941 H 6.698058 7.02627 45.416681 H 0.0 **** 0.0
9942 H 5.135708 6.990117 44.942925 H 0.0 **** 0.0
9943 O 43.845607 22.502894 13.555445 O 0.0 **** 0.0
9944 H 43.3311 23.352365 13.438206 H 0.0 **** 0.0
9945 H 44.539182 22.431696 12.838544 H 0.0 **** 0.0
9946 O 40.59634 23.074546 17.050181 O 0.0 **** 0.0
9947 H 39.861941 23.14799 16.375401 H 0.0 **** 0.0
9948 H 41.372028 22.588925 16.647014 H 0.0 **** 0.0
9949 O 27.33327 7.077682 8.347911 O 0.0 **** 0.0
9950 H 26.399727 6.728456 8.429158 H 0.0 **** 0.0
9951 H 27.973023 6.310587 8.299486 H 0.0 **** 0.0
9952 O 0.14639 22.593157 35.982927 O 0.0 **** 0.0
9953 H 0.54873 21.808023 36.453831 H 0.0 **** 0.0
9954 H -0.022349 22.357176 35.025899 H 0.0 **** 0.0
9955 O 43.775881 47.104353 19.290857 O 0.0 **** 0.0
9956 H 44.347206 46.284028 19.264041 H 0.0 **** 0.0
9957 H 44.358569 47.916947 19.275752 H 0.0 **** 0.0
9958 O 2.770605 12.348687 20.055466 O 0.0 **** 0.0
9959 H 2.001815 12.670365 19.502703 H 0.0 **** 0.0
9960 H 2.817154 11.350648 20.012858 H 0.0 **** 0.0
9961 O 6.505416 25.252362 14.429276 O 0.0 **** 0.0
9962 H 6.694425 24.715148 13.607242 H 0.0 **** 0.0
9963 H 6.890191 26.169372 14.323899 H 0.0 **** 0.0
9964 O 18.91322 29.309629 33.061206 O 0.0 **** 0.0
9965 H 19.024289 28.809652 32.202282 H 0.0 **** 0.0
9966 H 18.535548 28.697991 33.756422 H 0.0 **** 0.0
9967 O 33.535029 35.362495 2.498485 O 0.0 **** 0.0
9968 H 32.991899 36.189262 2.64521 H 0.0 **** 0.0
9969 H 32.949789 34.557534 2.596438 H 0.0 **** 0.0
9970 O 2.26077 6.641677 41.282419 O 0.0 **** 0.0
9971 H 2.845279 5.832065 41.336645 H 0.0 **** 0.0
9972 H 2.790016 7.411533 40.925652 H 0.0 **** 0.0
9973 O 18.8218 26.860336 24.818569 O 0.0 **** 0.0
9974 H 18.312208 27.360302 25.518863 H 0.0 **** 0.0
9975 H 18.507922 27.143314 23.912221 H 0.0 **** 0.0
9976 O 30.745395 14.891703 36.045177 O 0.0 **** 0.0
9977 H 29.795911 14.578006 36.033474 H 0.0 **** 0.0
9978 H 30.768839 15.886779 35.948546 H 0.0 **** 0.0
9979 O 33.170229 38.074807 41.6088 O 0.0 **** 0.0
9980 H 33.780308 38.54618 42.245725 H 0.0 **** 0.0
9981 H 33.687768 37.786607 40.803097 H 0.0 **** 0.0
9982 O 30.982735 18.71709 0.365376 O 0.0 **** 0.0
9983 H 30.998444 17.726673 0.22793 H 0.0 **** 0.0
9984 H 31.808114 19.121386 -0.028778 H 0.0 **** 0.0
9985 O 28.345008 25.229874 10.03942 O 0.0 **** 0.0
9986 H 28.169392 24.319775 10.414842 H 0.0 **** 0.0
9987 H 28.903412 25.753698 10.682736 H 0.0 **** 0.0
9988 O 46.458362 40.339421 9.46225 O 0.0 **** 0.0
9989 H 47.393095 40.684878 9.545904 H 0.0 **** 0.0
9990 H 46.445852 39.560295 8.835457 H 0.0 **** 0.0
9991 O 45.991214 26.795738 1.1184 O 0.0 **** 0.0
9992 H 46.871363 26.328218 1.201014 H 0.0 **** 0.0
9993 H 45.254511 26.119581 1.106407 H 0.0 **** 0.0
9994 O 34.595605 39.913388 40.35564 O 0.0 **** 0.0
9995 H 35.582802 39.804484 40.238832 H 0.0 **** 0.0
9996 H 34.327657 40.837422 40.082825 H 0.0 **** 0.0
9997 O 46.353972 26.27559 22.790673 O 0.0 **** 0.0
9998 H 46.644977 26.751546 21.960706 H 0.0 **** 0.0
9999 H 46.351351 26.916125 23.558638 H 0.0 **** 0.0
10000 O 37.607286 27.507989 41.075541 O 0.0 **** 0.0
10001 H 38.145245 26.971706 41.725975 H 0.0 **** 0.0
10002 H 38.214103 27.898371 40.383127 H 0.0 **** 0.0
10003 O 27.325064 34.724529 7.770688 O 0.0 **** 0.0
10004 H 27.987353 35.462284 7.901655 H 0.0 **** 0.0
10005 H 26.421135 35.115178 7.59642 H 0.0 **** 0.0
10006 O 24.53626 17.82439 44.160896 O 0.0 **** 0.0
10007 H 25.408666 18.313183 44.153671 H 0.0 **** 0.0
10008 H 24.406336 17.361472 43.284033 H 0.0 **** 0.0
10009 O 39.977518 32.061991 42.570738 O 0.0 **** 0.0
10010 H 40.837411 32.493143 42.84415 H 0.0 **** 0.0
10011 H 39.808111 32.24141 41.601629 H 0.0 **** 0.0
10012 O 19.681331 12.030104 46.662086 O 0.0 **** 0.0
10013 H 20.570559 12.238239 47.069536 H 0.0 **** 0.0
10014 H 19.665652 11.074964 46.366242 H 0.0 **** 0.0
10015 O 22.345596 38.841515 11.581117 O 0.0 **** 0.0
10016 H 22.85536 39.701861 11.578138 H 0.0 **** 0.0
10017 H 22.985377 38.074868 11.526395 H 0.0 **** 0.0
10018 O 38.225251 23.856377 45.817069 O 0.0 **** 0.0
10019 H 38.456429 24.787416 45.534606 H 0.0 **** 0.0
10020 H 38.868849 23.551615 46.519184 H 0.0 **** 0.0
10021 O 7.51599 43.406808 8.189187 O 0.0 **** 0.0
10022 H 7.898246 44.260122 7.834505 H 0.0 **** 0.0
10023 H 8.258713 42.808657 8.490251 H 0.0 **** 0.0
10024 O 19.286081 23.408402 5.531538 O 0.0 **** 0.0
10025 H 20.109508 23.407706 4.964061 H 0.0 **** 0.0
10026 H 19.335964 22.659286 6.192143 H 0.0 **** 0.0
10027 O 22.298654 6.808303 25.513735 O 0.0 **** 0.0
10028 H 23.1558 7.311269 25.625046 H 0.0 **** 0.0
10029 H 22.460114 5.993875 24.95633 H 0.0 **** 0.0
10030 O 27.743805 35.025473 10.872142 O 0.0 **** 0.0
10031 H 28.70353 35.179822 11.107019 H 0.0 **** 0.0
10032 H 27.528247 34.0541 10.972303 H 0.0 **** 0.0
10033 O 34.934974 40.8443 30.619181 O 0.0 **** 0.0
10034 H 34.05656 40.582936 30.219005 H 0.0 **** 0.0
10035 H 34.9473 40.595247 31.587625 H 0.0 **** 0.0
10036 O 17.573593 21.85397 42.03059 O 0.0 **** 0.0
10037 H 17.453925 20.968516 42.479715 H 0.0 **** 0.0
10038 H 18.512913 21.934197 41.696967 H 0.0 **** 0.0
10039 O 2.395276 15.090892 32.703954 O 0.0 **** 0.0
10040 H 3.335942 15.422958 32.774265 H 0.0 **** 0.0
10041 H 1.799507 15.83757 32.407993 H 0.0 **** 0.0
10042 O 39.389445 36.072477 14.920049 O 0.0 **** 0.0
10043 H 40.374394 35.899887 14.93234 H 0.0 **** 0.0
10044 H 38.901407 35.209186 14.791169 H 0.0 **** 0.0
10045 O 47.294009 36.349492 13.794777 O 0.0 **** 0.0
10046 H 48.001205 36.222337 13.099242 H 0.0 **** 0.0
10047 H 47.048432 37.317478 13.847291 H 0.0 **** 0.0
10048 O 19.34231 31.16053 22.545955 O 0.0 **** 0.0
10049 H 19.151443 32.084595 22.87722 H 0.0 **** 0.0
10050 H 18.866412 31.012359 21.678989 H 0.0 **** 0.0
10051 O 7.961324 4.762361 44.689429 O 0.0 **** 0.0
10052 H 7.081215 4.423779 44.356511 H 0.0 **** 0.0
10053 H 8.643654 4.688213 43.962112 H 0.0 **** 0.0
10054 O 13.08614 13.226698 13.523915 O 0.0 **** 0.0
10055 H 13.971251 13.562997 13.845698 H 0.0 **** 0.0
10056 H 13.219566 12.384663 13.001193 H 0.0 **** 0.0
10057 O 45.853201 29.575804 17.332266 O 0.0 **** 0.0
10058 H 44.926231 29.911578 17.164801 H 0.0 **** 0.0
10059 H 45.81256 28.626405 17.6438 H 0.0 **** 0.0
10060 O 41.750019 18.375878 26.109485 O 0.0 **** 0.0
10061 H 42.682576 18.629596 26.366443 H 0.0 **** 0.0
10062 H 41.77357 17.55793 25.53462 H 0.0 **** 0.0
10063 O 44.211462 29.805152 45.412855 O 0.0 **** 0.0
10064 H 44.899395 30.439673 45.765267 H 0.0 **** 0.0
10065 H 43.902929 30.11409 44.513173 H 0.0 **** 0.0
10066 O 15.118522 45.927321 23.516643 O 0.0 **** 0.0
10067 H 16.042979 45.911215 23.89767 H 0.0 **** 0.0
10068 H 14.763942 44.993814 23.462781 H 0.0 **** 0.0
10069 O 5.840755 45.366885 1.63149 O 0.0 **** 0.0
10070 H 6.449106 44.586257 1.487992 H 0.0 **** 0.0
10071 H 6.275756 46.018603 2.252859 H 0.0 **** 0.0
10072 O 45.238052 25.327415 9.246296 O 0.0 **** 0.0
10073 H 45.172239 24.330655 9.199378 H 0.0 **** 0.0
10074 H 44.319354 25.720677 9.283742 H 0.0 **** 0.0
10075 O 0.055524 9.485234 20.860338 O 0.0 **** 0.0
10076 H 0.681629 9.355052 20.091503 H 0.0 **** 0.0
10077 H -0.028564 10.461508 21.060043 H 0.0 **** 0.0
10078 O 41.995652 27.083969 41.246062 O 0.0 **** 0.0
10079 H 41.951356 27.994257 40.834386 H 0.0 **** 0.0
10080 H 41.188735 26.937369 41.8183 H 0.0 **** 0.0
10081 O 39.027795 20.816593 47.744732 O 0.0 **** 0.0
10082 H 39.456134 19.913545 47.777768 H 0.0 **** 0.0
10083 H 38.350845 20.837645 47.008961 H 0.0 **** 0.0
10084 O 1.700841 43.34117 39.361295 O 0.0 **** 0.0
10085 H 1.497543 42.818061 40.188997 H 0.0 **** 0.0
10086 H 2.128452 42.741602 38.684738 H 0.0 **** 0.0
10087 O 5.365944 35.659912 45.85898 O 0.0 **** 0.0
10088 H 5.723719 34.743554 45.679124 H 0.0 **** 0.0
10089 H 4.443994 35.738124 45.479568 H 0.0 **** 0.0
10090 O 0.416854 12.274095 30.469322 O 0.0 **** 0.0
10091 H 0.602171 11.702286 31.268544 H 0.0 **** 0.0
10092 H 0.741183 13.204089 30.642483 H 0.0 **** 0.0
10093 O 21.850676 46.073717 22.526469 O 0.0 **** 0.0
10094 H 21.655248 45.127539 22.268365 H 0.0 **** 0.0
10095 H 21.018324 46.621319 22.440522 H 0.0 **** 0.0
10096 O 5.686854 18.751204 29.860393 O 0.0 **** 0.0
10097 H 5.065271 19.496007 29.617564 H 0.0 **** 0.0
10098 H 5.463141 18.41534 30.775385 H 0.0 **** 0.0
10099 O 12.068109 27.684899 28.083262 O 0.0 **** 0.0
10100 H 11.424221 28.41734 28.304623 H 0.0 **** 0.0
10101 H 12.933342 27.847097 28.557739 H 0.0 **** 0.0
10102 O 26.529749 40.896421 39.354412 O 0.0 **** 0.0
10103 H 25.659809 40.59227 38.966135 H 0.0 **** 0.0
10104 H 27.141868 40.112127 39.455676 H 0.0 **** 0.0
10105 O 15.983617 31.554464 5.030685 O 0.0 **** 0.0
10106 H 15.249664 32.137667 5.378896 H 0.0 **** 0.0
10107 H 15.69785 30.597139 5.074607 H 0.0 **** 0.0
10108 O 16.872503 5.291751 1.851934 O 0.0 **** 0.0
10109 H 17.352528 4.840238 2.604114 H 0.0 **** 0.0
10110 H 16.137093 4.699468 1.522638 H 0.0 **** 0.0
10111 O 12.247705 34.729237 32.035087 O 0.0 **** 0.0
10112 H 11.493393 35.349406 31.819526 H 0.0 **** 0.0
10113 H 11.95681 34.08338 32.740999 H 0.0 **** 0.0
10114 O 4.630922 14.835515 27.136178 O 0.0 **** 0.0
10115 H 4.071051 14.790817 27.96359 H 0.0 **** 0.0
10116 H 4.082321 14.558691 26.347211 H 0.0 **** 0.0
10117 O 15.173973 32.95471 1.691421 O 0.0 **** 0.0
10118 H 15.586251 33.104402 2.590133 H 0.0 **** 0.0
10119 H 15.170948 31.976231 1.484945 H 0.0 **** 0.0
10120 O 36.116067 8.363821 46.476415 O 0.0 **** 0.0
10121 H 35.448979 7.66076 46.722914 H 0.0 **** 0.0
10122 H 36.968298 7.927823 46.187155 H 0.0 **** 0.0
10123 O 2.897519 21.242941 29.593482 O 0.0 **** 0.0
10124 H 3.626056 21.104627 30.264426 H 0.0 **** 0.0
10125 H 2.579678 22.190113 29.637129 H 0.0 **** 0.0
10126 O 27.0457 19.228824 13.778488 O 0.0 **** 0.0
10127 H 27.541532 20.097273 13.775273 H 0.0 **** 0.0
10128 H 27.619445 18.51599 13.37507 H 0.0 **** 0.0
10129 O 34.57936 40.772666 43.370004 O 0.0 **** 0.0
10130 H 34.124102 41.443972 42.785066 H 0.0 **** 0.0
10131 H 35.097496 41.247488 44.08144 H 0.0 **** 0.0
10132 O 1.062109 3.620092 21.332198 O 0.0 **** 0.0
10133 H 0.497299 2.796982 21.272677 H 0.0 **** 0.0
10134 H 0.487142 4.402135 21.572789 H 0.0 **** 0.0
10135 O 31.863758 20.529591 46.488652 O 0.0 **** 0.0
10136 H 31.300931 19.959692 45.8899 H 0.0 **** 0.0
10137 H 31.278963 21.173392 46.982209 H 0.0 **** 0.0
10138 O 24.159721 47.524237 3.025463 O 0.0 **** 0.0
10139 H 24.917362 46.91406 2.793671 H 0.0 **** 0.0
10140 H 23.334299 46.983668 3.188328 H 0.0 **** 0.0
10141 O 23.794641 1.502254 21.614998 O 0.0 **** 0.0
10142 H 22.838973 1.208277 21.596621 H 0.0 **** 0.0
10143 H 23.835645 2.501159 21.638893 H 0.0 **** 0.0
10144 O 36.073659 43.719504 7.805109 O 0.0 **** 0.0
10145 H 35.434199 43.657813 7.038722 H 0.0 **** 0.0
10146 H 35.736611 43.164782 8.565862 H 0.0 **** 0.0
10147 O 21.697722 17.180134 44.025019 O 0.0 **** 0.0
10148 H 20.804029 17.283037 43.588226 H 0.0 **** 0.0
10149 H 22.214263 16.460104 43.561548 H 0.0 **** 0.0
10150 O 44.676827 18.325423 42.524614 O 0.0 **** 0.0
10151 H 45.625667 18.586959 42.701711 H 0.0 **** 0.0
10152 H 44.57892 17.335676 42.62891 H 0.0 **** 0.0
10153 O 28.270624 27.254662 33.764138 O 0.0 **** 0.0
10154 H 28.223726 26.270895 33.937534 H 0.0 **** 0.0
10155 H 28.063066 27.43383 32.80243 H 0.0 **** 0.0
10156 O 47.230952 13.064776 7.084498 O 0.0 **** 0.0
10157 H 47.903067 12.357724 7.304505 H 0.0 **** 0.0
10158 H 47.670276 13.962682 7.11317 H 0.0 **** 0.0
10159 O 40.620298 33.305071 32.318391 O 0.0 **** 0.0
10160 H 40.36731 32.340298 32.245774 H 0.0 **** 0.0
10161 H 41.110503 33.45738 33.176624 H 0.0 **** 0.0
10162 O 42.919381 11.385365 25.941485 O 0.0 **** 0.0
10163 H 42.71446 12.311121 25.62361 H 0.0 **** 0.0
10164 H 43.883013 11.179917 25.770407 H 0.0 **** 0.0
10165 O 16.449061 23.526137 12.649575 O 0.0 **** 0.0
10166 H 16.53614 24.26666 11.983162 H 0.0 **** 0.0
10167 H 15.507091 23.486963 12.983072 H 0.0 **** 0.0
10168 O 2.350327 20.377783 11.851989 O 0.0 **** 0.0
10169 H 2.559619 19.410843 11.706087 H 0.0 **** 0.0
10170 H 2.886716 20.722299 12.622481 H 0.0 **** 0.0
10171 O 35.671193 13.616819 19.429298 O 0.0 **** 0.0
10172 H 36.352892 14.243787 19.052123 H 0.0 **** 0.0
10173 H 35.551541 13.802127 20.4047 H 0.0 **** 0.0
10174 O 5.745156 18.028145 10.660927 O 0.0 **** 0.0
10175 H 5.674483 17.103384 11.034937 H 0.0 **** 0.0
10176 H 4.916689 18.242594 10.143514 H 0.0 **** 0.0
10177 O 15.407304 39.57543 28.656603 O 0.0 **** 0.0
10178 H 16.17113 40.154246 28.37094 H 0.0 **** 0.0
10179 H 14.563163 40.111594 28.65256 H 0.0 **** 0.0
10180 O 6.166742 16.96387 2.222525 O 0.0 **** 0.0
10181 H 6.774258 16.702825 1.472297 H 0.0 **** 0.0
10182 H 5.37737 16.350183 2.241087 H 0.0 **** 0.0
10183 O 30.411512 6.72225 13.749915 O 0.0 **** 0.0
10184 H 31.12912 6.032889 13.849325 H 0.0 **** 0.0
10185 H 29.516107 6.277929 13.779787 H 0.0 **** 0.0
10186 O 42.731631 22.763996 47.677108 O 0.0 **** 0.0
10187 H 41.928253 22.176206 47.772768 H 0.0 **** 0.0
10188 H 43.542412 22.275299 47.9994 H 0.0 **** 0.0
10189 O 40.839992 2.04214 23.234168 O 0.0 **** 0.0
10190 H 41.474637 1.375029 22.843974 H 0.0 **** 0.0
10191 H 39.971697 2.005056 22.739444 H 0.0 **** 0.0
10192 O 17.334471 24.221896 45.253537 O 0.0 **** 0.0
10193 H 17.289567 25.198112 45.041287 H 0.0 **** 0.0
10194 H 16.410315 23.839901 45.26235 H 0.0 **** 0.0
10195 O 15.931541 7.650838 44.777602 O 0.0 **** 0.0
10196 H 16.749588 7.253894 44.361312 H 0.0 **** 0.0
10197 H 16.197605 8.23291 45.546019 H 0.0 **** 0.0
10198 O 12.735224 2.133186 34.831098 O 0.0 **** 0.0
10199 H 12.354615 3.057927 34.823777 H 0.0 **** 0.0
10200 H 11.990162 1.466176 34.837597 H 0.0 **** 0.0
10201 O 20.194018 31.322659 41.650774 O 0.0 **** 0.0
10202 H 20.009471 30.342496 41.723471 H 0.0 **** 0.0
10203 H 19.663259 31.813848 42.341493 H 0.0 **** 0.0
10204 O 2.58217 8.665355 19.238447 O 0.0 **** 0.0
10205 H 2.911929 9.478174 18.75819 H 0.0 **** 0.0
10206 H 3.324689 8.276275 19.783741 H 0.0 **** 0.0
10207 O 13.366572 18.184642 41.627884 O 0.0 **** 0.0
10208 H 12.447027 18.576445 41.596432 H 0.0 **** 0.0
10209 H 13.824181 18.475449 42.468175 H 0.0 **** 0.0
10210 O 42.116732 8.989916 0.082027 O 0.0 **** 0.0
10211 H 42.012334 7.998943 0.1665 H 0.0 **** 0.0
10212 H 41.214889 9.414293 0.000499 H 0.0 **** 0.0
10213 O 45.899109 40.940241 29.206986 O 0.0 **** 0.0
10214 H 45.337948 41.743372 29.006631 H 0.0 **** 0.0
10215 H 45.306932 40.172902 29.453116 H 0.0 **** 0.0
10216 O 7.546049 47.175103 11.255422 O 0.0 **** 0.0
10217 H 6.844498 47.240609 10.545775 H 0.0 **** 0.0
10218 H 7.370959 46.371253 11.823956 H 0.0 **** 0.0
10219 O 2.324182 46.743044 38.703983 O 0.0 **** 0.0
10220 H 1.329177 46.837528 38.670811 H 0.0 **** 0.0
10221 H 2.688967 47.315116 39.438646 H 0.0 **** 0.0
10222 O 2.363056 12.144166 40.216096 O 0.0 **** 0.0
10223 H 1.762511 12.941738 40.273434 H 0.0 **** 0.0
10224 H 1.809282 11.313339 40.160218 H 0.0 **** 0.0
10225 O 26.409229 32.80288 47.600725 O 0.0 **** 0.0
10226 H 25.619885 32.336758 48.000387 H 0.0 **** 0.0
10227 H 27.219973 32.224896 47.693962 H 0.0 **** 0.0
10228 O 25.95305 41.824353 36.589799 O 0.0 **** 0.0
10229 H 25.303645 41.065199 36.634756 H 0.0 **** 0.0
10230 H 25.452481 42.68897 36.54585 H 0.0 **** 0.0
10231 O 44.722866 36.43858 7.587444 O 0.0 **** 0.0
10232 H 44.036989 37.164525 7.536067 H 0.0 **** 0.0
10233 H 44.346366 35.596432 7.201312 H 0.0 **** 0.0
10234 O 22.933096 17.24291 13.887918 O 0.0 **** 0.0
10235 H 22.104128 17.79947 13.943733 H 0.0 **** 0.0
10236 H 23.627175 17.616141 14.50356 H 0.0 **** 0.0
10237 O 22.273236 30.047592 6.380853 O 0.0 **** 0.0
10238 H 21.435341 30.010983 5.836193 H 0.0 **** 0.0
10239 H 22.716083 30.934896 6.251853 H 0.0 **** 0.0
10240 O 33.383602 35.068715 42.794954 O 0.0 **** 0.0
10241 H 32.533005 34.857073 43.276364 H 0.0 **** 0.0
10242 H 33.330743 35.992377 42.415325 H 0.0 **** 0.0
10243 O 15.108582 19.68414 0.001565 O 0.0 **** 0.0
10244 H 14.123577 19.511429 0.001752 H 0.0 **** 0.0
10245 H 15.274007 20.670392 -0.000509 H 0.0 **** 0.0
10246 O 12.557128 22.821066 42.74552 O 0.0 **** 0.0
10247 H 12.475694 23.810356 42.866915 H 0.0 **** 0.0
10248 H 13.440859 22.608066 42.328729 H 0.0 **** 0.0
10249 O 40.309677 9.577937 31.391968 O 0.0 **** 0.0
10250 H 40.548291 10.352975 31.977155 H 0.0 **** 0.0
10251 H 40.385165 8.729309 31.915604 H 0.0 **** 0.0
10252 O 40.490627 37.337201 41.671467 O 0.0 **** 0.0
10253 H 40.837344 36.579191 41.118953 H 0.0 **** 0.0
10254 H 39.743911 37.012259 42.251889 H 0.0 **** 0.0
10255 O 40.019417 37.855048 39.365708 O 0.0 **** 0.0
10256 H 40.788414 38.367101 39.748471 H 0.0 **** 0.0
10257 H 40.294044 37.440198 38.498216 H 0.0 **** 0.0
10258 O 17.616822 14.423819 20.668919 O 0.0 **** 0.0
10259 H 18.496529 14.774013 20.9907 H 0.0 **** 0.0
10260 H 17.162911 15.121595 20.114721 H 0.0 **** 0.0
10261 O 18.331367 13.019954 35.745021 O 0.0 **** 0.0
10262 H 17.906766 13.898145 35.965382 H 0.0 **** 0.0
10263 H 19.095188 13.167432 35.116617 H 0.0 **** 0.0
10264 O 5.43317 43.757713 3.252481 O 0.0 **** 0.0
10265 H 4.748742 44.483654 3.320535 H 0.0 **** 0.0
10266 H 4.976042 42.88245 3.094332 H 0.0 **** 0.0
10267 O 25.711822 44.127785 34.138774 O 0.0 **** 0.0
10268 H 26.691944 44.13604 34.337155 H 0.0 **** 0.0
10269 H 25.466515 44.956846 33.636235 H 0.0 **** 0.0
10270 O 47.997638 17.336656 23.370275 O 0.0 **** 0.0
10271 H 47.995202 16.739661 24.172557 H 0.0 **** 0.0
10272 H 47.057375 17.583521 23.1357 H 0.0 **** 0.0
10273 O 13.991596 32.432298 44.658264 O 0.0 **** 0.0
10274 H 13.465631 33.231333 44.949754 H 0.0 **** 0.0
10275 H 14.9688 32.631366 44.732473 H 0.0 **** 0.0
10276 O 6.689434 35.801685 42.391399 O 0.0 **** 0.0
10277 H 6.227435 34.914917 42.375164 H 0.0 **** 0.0
10278 H 7.6795 35.661468 42.404446 H 0.0 **** 0.0
10279 O 14.193519 16.826885 18.723044 O 0.0 **** 0.0
10280 H 15.08769 16.887713 18.279398 H 0.0 **** 0.0
10281 H 14.317638 16.711017 19.708555 H 0.0 **** 0.0
10282 O 30.763519 26.09514 33.639756 O 0.0 **** 0.0
10283 H 30.121861 25.631568 33.02866 H 0.0 **** 0.0
10284 H 31.461593 25.44688 33.943918 H 0.0 **** 0.0
10285 O 1.667193 15.566424 5.809529 O 0.0 **** 0.0
10286 H 1.011787 16.071216 6.371393 H 0.0 **** 0.0
10287 H 2.597745 15.807589 6.085165 H 0.0 **** 0.0
10288 O 18.856652 36.247397 16.270281 O 0.0 **** 0.0
10289 H 18.24938 35.633909 15.765389 H 0.0 **** 0.0
10290 H 19.794517 36.131567 15.943087 H 0.0 **** 0.0
10291 O 8.670333 12.437766 35.347259 O 0.0 **** 0.0
10292 H 7.672173 12.409097 35.293234 H 0.0 **** 0.0
10293 H 8.975128 13.389661 35.379791 H 0.0 **** 0.0
10294 O 3.048919 1.029457 14.379077 O 0.0 **** 0.0
10295 H 2.606563 1.57945 15.08752 H 0.0 **** 0.0
10296 H 2.508876 0.204567 14.211824 H 0.0 **** 0.0
10297 O 35.084951 43.400124 44.531104 O 0.0 **** 0.0
10298 H 35.224204 44.24127 45.053736 H 0.0 **** 0.0
10299 H 35.565441 43.467668 43.656672 H 0.0 **** 0.0
10300 O 3.416981 17.816952 28.132397 O 0.0 **** 0.0
10301 H 3.119869 18.715301 27.808735 H 0.0 **** 0.0
10302 H 2.978337 17.103838 27.585476 H 0.0 **** 0.0
10303 O 26.321319 39.312578 46.233923 O 0.0 **** 0.0
10304 H 27.005645 40.021829 46.064441 H 0.0 **** 0.0
10305 H 26.294655 38.682869 45.45751 H 0.0 **** 0.0
10306 O 47.771738 13.508611 20.622999 O 0.0 **** 0.0
10307 H 47.999651 13.670222 21.583207 H 0.0 **** 0.0
10308 H 48.013147 12.569959 20.376588 H 0.0 **** 0.0
10309 O 0.953844 46.769864 1.127 O 0.0 **** 0.0
10310 H 1.552132 47.569426 1.180046 H 0.0 **** 0.0
10311 H 1.8e-05 47.068777 1.096484 H 0.0 **** 0.0
10312 O 40.947442 36.291546 3.011912 O 0.0 **** 0.0
10313 H 41.569732 36.871858 3.537322 H 0.0 **** 0.0
10314 H 40.263231 36.862172 2.557705 H 0.0 **** 0.0
10315 O 29.437601 25.046562 39.889796 O 0.0 **** 0.0
10316 H 29.608564 24.969672 38.907491 H 0.0 **** 0.0
10317 H 30.304599 25.182203 40.369358 H 0.0 **** 0.0
10318 O 13.260704 4.012279 25.618528 O 0.0 **** 0.0
10319 H 12.886242 3.187673 25.194421 H 0.0 **** 0.0
10320 H 12.88934 4.82033 25.16114 H 0.0 **** 0.0
10321 O 20.846103 1.67513 34.477147 O 0.0 **** 0.0
10322 H 21.585918 2.283284 34.18925 H 0.0 **** 0.0
10323 H 21.160364 0.726545 34.43856 H 0.0 **** 0.0
10324 O 27.088918 32.665783 37.595614 O 0.0 **** 0.0
10325 H 27.837424 32.604303 38.255934 H 0.0 **** 0.0
10326 H 27.349325 33.283061 36.853173 H 0.0 **** 0.0
10327 O 30.02072 39.9214 45.87353 O 0.0 **** 0.0
10328 H 30.707363 39.287776 45.517011 H 0.0 **** 0.0
10329 H 30.421046 40.83395 45.957532 H 0.0 **** 0.0
10330 O 35.711294 20.502889 5.735284 O 0.0 **** 0.0
10331 H 36.055393 21.267943 5.190902 H 0.0 **** 0.0
10332 H 36.461822 19.873796 5.937803 H 0.0 **** 0.0
10333 O 1.892594 0.585351 40.569785 O 0.0 **** 0.0
10334 H 2.753506 0.07898 40.519975 H 0.0 **** 0.0
10335 H 2.079454 1.566372 40.517398 H 0.0 **** 0.0
10336 O 9.278541 8.584003 46.528054 O 0.0 **** 0.0
10337 H 9.745149 7.761068 46.203834 H 0.0 **** 0.0
10338 H 8.382729 8.335785 46.896799 H 0.0 **** 0.0
10339 O 13.751134 39.287715 36.325861 O 0.0 **** 0.0
10340 H 13.132773 38.736007 35.766119 H 0.0 **** 0.0
10341 H 14.372975 38.6861 36.827296 H 0.0 **** 0.0
10342 O 41.615153 15.26158 25.425621 O 0.0 **** 0.0
10343 H 42.60764 15.38256 25.445565 H 0.0 **** 0.0
10344 H 41.398744 14.285458 25.405218 H 0.0 **** 0.0
10345 O 15.106733 22.928231 4.263703 O 0.0 **** 0.0
10346 H 14.273722 23.334849 3.888446 H 0.0 **** 0.0
10347 H 15.012625 21.932808 4.282137 H 0.0 **** 0.0
10348 O 7.989311 9.793584 23.910503 O 0.0 **** 0.0
10349 H 7.015933 9.756453 24.136822 H 0.0 **** 0.0
10350 H 8.113887 10.298925 23.056586 H 0.0 **** 0.0
10351 O 21.074322 30.7573 20.895709 O 0.0 **** 0.0
10352 H 21.768557 31.476531 20.92412 H 0.0 **** 0.0
10353 H 21.050973 30.352562 19.98154 H 0.0 **** 0.0
10354 O 5.005329 24.400816 16.406699 O 0.0 **** 0.0
10355 H 5.646382 23.757225 15.988482 H 0.0 **** 0.0
10356 H 4.068215 24.120221 16.198983 H 0.0 **** 0.0
10357 O 0.576152 41.144904 21.18243 O 0.0 **** 0.0
10358 H -0.00042 41.944952 21.348419 H 0.0 **** 0.0
10359 H -0.000441 40.334662 21.077023 H 0.0 **** 0.0
10360 O 31.721899 32.331167 17.210284 O 0.0 **** 0.0
10361 H 32.091631 31.524623 17.671639 H 0.0 **** 0.0
10362 H 32.445227 33.012841 17.099915 H 0.0 **** 0.0
10363 O 29.870596 21.102138 0.620345 O 0.0 **** 0.0
10364 H 30.309177 20.632425 1.386556 H 0.0 **** 0.0
10365 H 30.571352 21.449016 -0.003096 H 0.0 **** 0.0
10366 O 3.546415 20.549114 8.732838 O 0.0 **** 0.0
10367 H 2.598722 20.788092 8.521104 H 0.0 **** 0.0
10368 H 3.631203 19.555356 8.80577 H 0.0 **** 0.0
10369 O 44.218148 14.423009 31.071781 O 0.0 **** 0.0
10370 H 45.208817 14.558596 31.087681 H 0.0 **** 0.0
10371 H 44.000029 13.624424 30.510757 H 0.0 **** 0.0
10372 O 31.51205 36.936924 43.883887 O 0.0 **** 0.0
10373 H 32.158145 37.64767 43.605561 H 0.0 **** 0.0
10374 H 30.577153 37.272511 43.768074 H 0.0 **** 0.0
10375 O 10.836947 20.358558 2.043726 O 0.0 **** 0.0
10376 H 10.314152 20.168185 1.21276 H 0.0 **** 0.0
10377 H 10.995119 21.343072 2.119741 H 0.0 **** 0.0
10378 O 21.355466 10.212188 20.85395 O 0.0 **** 0.0
10379 H 21.430228 10.271962 19.85851 H 0.0 **** 0.0
10380 H 20.639572 9.557102 21.095655 H 0.0 **** 0.0
10381 O 9.076223 34.960152 0.175459 O 0.0 **** 0.0
10382 H 8.268599 34.385236 0.30691 H 0.0 **** 0.0
10383 H 8.78981 35.902108 0.000107 H 0.0 **** 0.0
10384 O 40.174181 35.858262 36.974351 O 0.0 **** 0.0
10385 H 39.330234 35.426137 37.292289 H 0.0 **** 0.0
10386 H 40.9382 35.557326 37.545117 H 0.0 **** 0.0
10387 O 24.266985 6.296285 8.745464 O 0.0 **** 0.0
10388 H 24.209473 7.206294 9.15612 H 0.0 **** 0.0
10389 H 23.89563 5.619638 9.381315 H 0.0 **** 0.0
10390 O 38.170053 20.410119 24.477341 O 0.0 **** 0.0
10391 H 37.359666 19.828344 24.407528 H 0.0 **** 0.0
10392 H 38.934485 19.875008 24.837014 H 0.0 **** 0.0
10393 O 4.720005 32.426956 13.194914 O 0.0 **** 0.0
10394 H 4.786118 33.027212 12.397805 H 0.0 **** 0.0
10395 H 4.789667 32.972864 14.029896 H 0.0 **** 0.0
10396 O 21.351498 9.014175 14.948212 O 0.0 **** 0.0
10397 H 21.123008 8.08201 15.229145 H 0.0 **** 0.0
10398 H 20.747572 9.294915 14.202209 H 0.0 **** 0.0
10399 O 44.47408 44.314988 28.35921 O 0.0 **** 0.0
10400 H 44.777471 44.198982 27.413399 H 0.0 **** 0.0
10401 H 45.238283 44.135445 28.978743 H 0.0 **** 0.0
10402 O 30.545198 5.027924 25.12553 O 0.0 **** 0.0
10403 H 30.630722 4.044679 24.964356 H 0.0 **** 0.0
10404 H 30.02607 5.183977 25.965897 H 0.0 **** 0.0
10405 O 5.979974 4.016246 16.932092 O 0.0 **** 0.0
10406 H 5.769482 3.0388 16.950964 H 0.0 **** 0.0
10407 H 6.958531 4.143352 16.769816 H 0.0 **** 0.0
10408 O 18.199852 44.636948 32.608467 O 0.0 **** 0.0
10409 H 18.37579 45.616511 32.706268 H 0.0 **** 0.0
10410 H 19.023413 44.182724 32.268627 H 0.0 **** 0.0
10411 O 24.559408 11.355909 1.632432 O 0.0 **** 0.0
10412 H 23.81776 11.748282 1.088314 H 0.0 **** 0.0
10413 H 25.212851 10.901745 1.026784 H 0.0 **** 0.0
10414 O 47.945841 11.299102 24.032375 O 0.0 **** 0.0
10415 H 47.962319 10.917899 23.107996 H 0.0 **** 0.0
10416 H 47.040825 11.681366 24.219147 H 0.0 **** 0.0
10417 O 36.416349 15.394097 26.374871 O 0.0 **** 0.0
10418 H 36.474105 15.767609 25.449012 H 0.0 **** 0.0
10419 H 36.513612 16.134767 27.039711 H 0.0 **** 0.0
10420 O 24.707937 26.79728 6.697934 O 0.0 **** 0.0
10421 H 25.577422 26.388035 6.421207 H 0.0 **** 0.0
10422 H 24.878781 27.683717 7.128172 H 0.0 **** 0.0
10423 O 10.052998 3.101095 5.239988 O 0.0 **** 0.0
10424 H 10.33382 3.410795 6.148442 H 0.0 **** 0.0
10425 H 9.496572 2.274712 5.326846 H 0.0 **** 0.0
10426 O 12.83875 30.523246 20.141131 O 0.0 **** 0.0
10427 H 13.226795 29.991117 19.388586 H 0.0 **** 0.0
10428 H 12.776425 31.484423 19.872211 H 0.0 **** 0.0
10429 O 33.263544 21.235936 26.279293 O 0.0 **** 0.0
10430 H 33.282539 21.557801 25.332665 H 0.0 **** 0.0
10431 H 34.185612 20.968122 26.558808 H 0.0 **** 0.0
10432 O 45.080079 29.92472 47.895239 O 0.0 **** 0.0
10433 H 45.871079 29.323796 48.010443 H 0.0 **** 0.0
10434 H 44.27688 29.3771 47.660615 H 0.0 **** 0.0
10435 O 12.362975 38.551088 8.174788 O 0.0 **** 0.0
10436 H 11.374907 38.406275 8.121743 H 0.0 **** 0.0
10437 H 12.811763 37.695679 8.433494 H 0.0 **** 0.0
10438 O 22.17247 34.181683 28.813201 O 0.0 **** 0.0
10439 H 21.340411 33.62736 28.834852 H 0.0 **** 0.0
10440 H 22.940188 33.64418 29.162145 H 0.0 **** 0.0
10441 O 32.368871 23.713234 38.802604 O 0.0 **** 0.0
10442 H 32.602578 23.89424 39.757947 H 0.0 **** 0.0
10443 H 31.374447 23.67376 38.70449 H 0.0 **** 0.0
10444 O 46.876093 5.091898 7.509508 O 0.0 **** 0.0
10445 H 46.927949 5.961114 7.017738 H 0.0 **** 0.0
10446 H 47.799394 4.781259 7.735524 H 0.0 **** 0.0
10447 O 35.954478 7.343733 13.77076 O 0.0 **** 0.0
10448 H 35.235803 8.038013 13.731444 H 0.0 **** 0.0
10449 H 35.540065 6.441487 13.890244 H 0.0 **** 0.0
10450 O 37.934318 5.280321 22.886017 O 0.0 **** 0.0
10451 H 37.258209 4.543595 22.872802 H 0.0 **** 0.0
10452 H 38.844176 4.894946 23.039984 H 0.0 **** 0.0
10453 O 41.018895 33.313839 18.328976 O 0.0 **** 0.0
10454 H 41.963426 33.077796 18.100484 H 0.0 **** 0.0
10455 H 40.604436 32.565685 18.847196 H 0.0 **** 0.0
10456 O 29.117626 22.805247 34.870831 O 0.0 **** 0.0
10457 H 28.425872 23.053907 35.548849 H 0.0 **** 0.0
10458 H 28.719034 22.85344 33.954936 H 0.0 **** 0.0
10459 O 38.865237 13.178586 35.600928 O 0.0 **** 0.0
10460 H 39.40654 12.341379 35.522584 H 0.0 **** 0.0
10461 H 37.905787 12.974548 35.406283 H 0.0 **** 0.0
10462 O 2.913359 24.580315 10.572908 O 0.0 **** 0.0
10463 H 3.149336 24.46748 9.60769 H 0.0 **** 0.0
10464 H 3.452083 23.943345 11.124369 H 0.0 **** 0.0
10465 O 23.090525 20.700643 9.328997 O 0.0 **** 0.0
10466 H 22.742006 20.227301 10.138036 H 0.0 **** 0.0
10467 H 24.058 20.480119 9.204799 H 0.0 **** 0.0
10468 O 19.701323 23.946624 40.104884 O 0.0 **** 0.0
10469 H 18.774379 23.640892 40.322524 H 0.0 **** 0.0
10470 H 20.091609 23.352634 39.401381 H 0.0 **** 0.0
10471 O 27.912981 13.191229 41.426733 O 0.0 **** 0.0
10472 H 28.593138 12.520248 41.131379 H 0.0 **** 0.0
10473 H 27.114396 12.715879 41.796013 H 0.0 **** 0.0
10474 O 32.516692 32.656146 11.822113 O 0.0 **** 0.0
10475 H 31.673258 32.119458 11.796655 H 0.0 **** 0.0
10476 H 32.319462 33.599725 11.55599 H 0.0 **** 0.0
10477 O 18.367944 34.700202 22.149834 O 0.0 **** 0.0
10478 H 19.082763 34.329638 22.742944 H 0.0 **** 0.0
10479 H 18.787432 35.236735 21.417559 H 0.0 **** 0.0
10480 O 44.543732 10.982851 34.717762 O 0.0 **** 0.0
10481 H 43.899781 10.379601 34.247146 H 0.0 **** 0.0
10482 H 45.101713 11.466061 34.043056 H 0.0 **** 0.0
10483 O 36.879402 45.084775 0.268965 O 0.0 **** 0.0
10484 H 36.985172 44.398722 0.988831 H 0.0 **** 0.0
10485 H 37.77513 45.462563 0.034421 H 0.0 **** 0.0
10486 O 30.838879 22.04297 33.736398 O 0.0 **** 0.0
10487 H 30.878033 23.028007 33.568369 H 0.0 **** 0.0
10488 H 31.749075 21.647441 33.613255 H 0.0 **** 0.0
10489 O 20.878202 20.716047 37.464562 O 0.0 **** 0.0
10490 H 20.49225 21.638258 37.439444 H 0.0 **** 0.0
10491 H 21.197568 20.513524 38.390334 H 0.0 **** 0.0
10492 O 16.090791 42.846572 38.995618 O 0.0 **** 0.0
10493 H 15.631285 42.004022 38.714501 H 0.0 **** 0.0
10494 H 15.849355 43.58421 38.365014 H 0.0 **** 0.0
10495 O 42.150249 28.444999 9.686042 O 0.0 **** 0.0
10496 H 42.32947 28.338146 10.664063 H 0.0 **** 0.0
10497 H 41.174848 28.612299 9.542289 H 0.0 **** 0.0
10498 O 14.132307 12.535629 35.464368 O 0.0 **** 0.0
10499 H 14.626688 11.773597 35.046088 H 0.0 **** 0.0
10500 H 13.752465 12.244567 36.342472 H 0.0 **** 0.0
10501 O 28.606156 25.444069 29.339992 O 0.0 **** 0.0
10502 H 28.66607 24.588382 28.825917 H 0.0 **** 0.0
10503 H 27.780331 25.436937 29.903929 H 0.0 **** 0.0
10504 O 32.859683 42.216197 11.555787 O 0.0 **** 0.0
10505 H 32.821981 43.061653 11.023015 H 0.0 **** 0.0
10506 H 33.21377 41.476853 10.983026 H 0.0 **** 0.0
10507 O 15.410501 47.059422 15.927301 O 0.0 **** 0.0
10508 H 15.07492 48.000118 15.977686 H 0.0 **** 0.0
10509 H 16.268639 47.038739 15.414237 H 0.0 **** 0.0
10510 O 7.327751 26.557186 25.833397 O 0.0 **** 0.0
10511 H 7.353076 26.874004 26.781578 H 0.0 **** 0.0
10512 H 6.5055 26.006967 25.687708 H 0.0 **** 0.0
10513 O 10.181481 43.933683 32.097841 O 0.0 **** 0.0
10514 H 9.777633 43.020499 32.153203 H 0.0 **** 0.0
10515 H 11.176347 43.854805 32.033942 H 0.0 **** 0.0
10516 O 38.87664 36.102172 26.318159 O 0.0 **** 0.0
10517 H 39.540005 36.84135 26.434891 H 0.0 **** 0.0
10518 H 39.357588 35.226433 26.275343 H 0.0 **** 0.0
10519 O 30.159673 3.679963 43.929574 O 0.0 **** 0.0
10520 H 30.895172 3.316448 43.357769 H 0.0 **** 0.0
10521 H 29.328226 3.143751 43.783849 H 0.0 **** 0.0
10522 O 9.196185 9.952239 5.964443 O 0.0 **** 0.0
10523 H 8.956455 9.12464 6.472058 H 0.0 **** 0.0
10524 H 8.37331 10.336538 5.54581 H 0.0 **** 0.0
10525 O 18.101326 6.162875 17.99005 O 0.0 **** 0.0
10526 H 17.989003 7.153122 18.072853 H 0.0 **** 0.0
10527 H 19.007761 5.901386 18.321807 H 0.0 **** 0.0
10528 O 13.557445 39.184931 46.004408 O 0.0 **** 0.0
10529 H 12.926566 38.544266 46.442133 H 0.0 **** 0.0
10530 H 13.954057 39.78768 46.696835 H 0.0 **** 0.0
10531 O 11.127355 33.43167 35.725386 O 0.0 **** 0.0
10532 H 11.236598 33.491746 34.733157 H 0.0 **** 0.0
10533 H 11.988063 33.678062 36.170959 H 0.0 **** 0.0
10534 O 6.519123 7.89156 41.435999 O 0.0 **** 0.0
10535 H 6.721626 6.970395 41.76843 H 0.0 **** 0.0
10536 H 5.662487 8.211217 41.841038 H 0.0 **** 0.0
10537 O 36.928204 10.031328 42.749787 O 0.0 **** 0.0
10538 H 36.388854 9.194904 42.652016 H 0.0 **** 0.0
10539 H 36.315843 10.821479 42.776971 H 0.0 **** 0.0
10540 O 0.058239 9.596059 29.815304 O 0.0 **** 0.0
10541 H 0.92475 9.173079 29.550144 H 0.0 **** 0.0
10542 H -0.001496 9.636347 30.812736 H 0.0 **** 0.0
10543 O 41.496908 13.48048 41.202583 O 0.0 **** 0.0
10544 H 42.416618 13.1408 41.399594 H 0.0 **** 0.0
10545 H 41.330346 13.439259 40.217382 H 0.0 **** 0.0
10546 O 17.303849 3.436474 46.944873 O 0.0 **** 0.0
10547 H 17.009162 3.355718 47.897082 H 0.0 **** 0.0
10548 H 17.575429 2.536934 46.602623 H 0.0 **** 0.0
10549 O 32.557606 10.506732 40.188968 O 0.0 **** 0.0
10550 H 31.596353 10.408482 40.446655 H 0.0 **** 0.0
10551 H 33.026102 11.079523 40.861638 H 0.0 **** 0.0
10552 O 15.128003 23.182499 15.408582 O 0.0 **** 0.0
10553 H 15.059271 22.843694 16.346959 H 0.0 **** 0.0
10554 H 14.212278 23.375222 15.055924 H 0.0 **** 0.0
10555 O 3.206396 25.060504 38.092955 O 0.0 **** 0.0
10556 H 2.288873 25.431366 37.949162 H 0.0 **** 0.0
10557 H 3.211108 24.492654 38.916112 H 0.0 **** 0.0
10558 O 7.152787 22.90589 42.454942 O 0.0 **** 0.0
10559 H 6.25714 22.943537 42.898184 H 0.0 **** 0.0
10560 H 7.316389 21.980787 42.112185 H 0.0 **** 0.0
10561 O 15.830877 9.387102 43.437976 O 0.0 **** 0.0
10562 H 15.131266 10.100283 43.482465 H 0.0 **** 0.0
10563 H 16.737288 9.805144 43.498986 H 0.0 **** 0.0
10564 O 44.949019 30.965437 38.994908 O 0.0 **** 0.0
10565 H 44.698825 30.190916 39.575927 H 0.0 **** 0.0
10566 H 45.940742 30.979456 38.867029 H 0.0 **** 0.0
10567 O 14.382768 36.627888 34.784095 O 0.0 **** 0.0
10568 H 14.100161 36.757423 35.734577 H 0.0 **** 0.0
10569 H 13.951285 37.324039 34.210283 H 0.0 **** 0.0
10570 O 14.547686 16.209302 37.256055 O 0.0 **** 0.0
10571 H 13.638955 15.98869 36.90165 H 0.0 **** 0.0
10572 H 14.967031 16.913387 36.682925 H 0.0 **** 0.0
10573 O 44.389004 11.790338 21.379931 O 0.0 **** 0.0
10574 H 44.715699 12.470757 22.035952 H 0.0 **** 0.0
10575 H 43.573732 11.340405 21.744564 H 0.0 **** 0.0
10576 O 31.348408 24.661404 13.505301 O 0.0 **** 0.0
10577 H 31.445107 23.666115 13.494651 H 0.0 **** 0.0
10578 H 31.801674 25.048891 12.702514 H 0.0 **** 0.0
10579 O 32.855125 4.600504 29.183866 O 0.0 **** 0.0
10580 H 32.533866 4.949181 30.064366 H 0.0 **** 0.0
10581 H 33.853972 4.639247 29.154449 H 0.0 **** 0.0
10582 O 42.881266 23.247754 35.172474 O 0.0 **** 0.0
10583 H 42.419173 23.506126 34.324078 H 0.0 **** 0.0
10584 H 43.854727 23.465432 35.101391 H 0.0 **** 0.0
10585 O 16.921415 18.371728 19.023404 O 0.0 **** 0.0
10586 H 17.159561 17.612895 18.417169 H 0.0 **** 0.0
10587 H 16.093824 18.820579 18.686227 H 0.0 **** 0.0
10588 O 11.891047 40.144699 47.540653 O 0.0 **** 0.0
10589 H 11.479706 41.031428 47.751778 H 0.0 **** 0.0
10590 H 11.233047 39.417247 47.735366 H 0.0 **** 0.0
10591 O 24.258542 7.85323 12.503423 O 0.0 **** 0.0
10592 H 25.035231 8.478465 12.580227 H 0.0 **** 0.0
10593 H 23.924151 7.851345 11.560958 H 0.0 **** 0.0
10594 O 14.678906 2.713123 8.446872 O 0.0 **** 0.0
10595 H 14.771527 3.150242 9.341529 H 0.0 **** 0.0
10596 H 15.578297 2.415363 8.126718 H 0.0 **** 0.0
10597 O 24.978209 17.359436 24.279513 O 0.0 **** 0.0
10598 H 25.009335 17.95044 25.085619 H 0.0 **** 0.0
10599 H 25.477098 17.79291 23.528998 H 0.0 **** 0.0
10600 O 30.464966 15.578997 1.535342 O 0.0 **** 0.0
10601 H 30.430534 15.308689 0.573151 H 0.0 **** 0.0
10602 H 29.785553 15.058241 2.052327 H 0.0 **** 0.0
10603 O 20.597816 35.816178 20.309562 O 0.0 **** 0.0
10604 H 20.475903 36.507039 19.596882 H 0.0 **** 0.0
10605 H 21.467799 35.970465 20.777949 H 0.0 **** 0.0
10606 O 11.772076 24.289049 16.342652 O 0.0 **** 0.0
10607 H 11.166897 24.645934 15.630996 H 0.0 **** 0.0
10608 H 12.199609 23.443307 16.023278 H 0.0 **** 0.0
10609 O 32.965871 34.672842 15.367178 O 0.0 **** 0.0
10610 H 33.049388 35.247511 16.181329 H 0.0 **** 0.0
10611 H 33.592975 33.897358 15.440863 H 0.0 **** 0.0
10612 O 34.15711 44.836494 5.360588 O 0.0 **** 0.0
10613 H 34.390717 45.764646 5.070718 H 0.0 **** 0.0
10614 H 33.172011 44.775656 5.521656 H 0.0 **** 0.0
10615 O 3.907317 2.07423 24.921 O 0.0 **** 0.0
10616 H 3.205326 2.094697 24.209063 H 0.0 **** 0.0
10617 H 4.808455 2.193084 24.504002 H 0.0 **** 0.0
10618 O 42.426121 39.86531 47.999172 O 0.0 **** 0.0
10619 H 41.44474 40.057542 47.999791 H 0.0 **** 0.0
10620 H 42.93442 40.726528 47.998617 H 0.0 **** 0.0
10621 O 22.054723 4.521623 43.284447 O 0.0 **** 0.0
10622 H 21.9782 5.20193 42.555482 H 0.0 **** 0.0
10623 H 21.742494 3.633923 42.945974 H 0.0 **** 0.0
10624 O 1.40469 19.907378 32.264274 O 0.0 **** 0.0
10625 H 1.086904 20.849153 32.374429 H 0.0 **** 0.0
10626 H 2.367698 19.909973 31.994696 H 0.0 **** 0.0
10627 O 34.592827 3.460052 11.738094 O 0.0 **** 0.0
10628 H 33.908808 3.075846 11.11796 H 0.0 **** 0.0
10629 H 34.530562 4.458069 11.725884 H 0.0 **** 0.0
10630 O 39.537375 28.707352 30.451549 O 0.0 **** 0.0
10631 H 40.01039 29.544725 30.177457 H 0.0 **** 0.0
10632 H 40.207932 27.982863 30.611339 H 0.0 **** 0.0
10633 O 0.976556 44.401599 41.663262 O 0.0 **** 0.0
10634 H 0.121987 44.871684 41.442364 H 0.0 **** 0.0
10635 H 1.726604 45.062874 41.677604 H 0.0 **** 0.0
10636 O 47.680892 42.50114 35.281781 O 0.0 **** 0.0
10637 H 47.999821 43.385343 34.940414 H 0.0 **** 0.0
10638 H 46.686593 42.44721 35.189464 H 0.0 **** 0.0
10639 O 23.769978 2.59443 19.403065 O 0.0 **** 0.0
10640 H 24.199789 1.693501 19.463496 H 0.0 **** 0.0
10641 H 22.781284 2.48573 19.299467 H 0.0 **** 0.0
10642 O 23.015401 34.021717 8.271999 O 0.0 **** 0.0
10643 H 23.733393 34.19705 7.598345 H 0.0 **** 0.0
10644 H 23.151104 34.614729 9.065714 H 0.0 **** 0.0
10645 O 23.010388 39.720561 28.061728 O 0.0 **** 0.0
10646 H 23.804858 39.339413 28.534598 H 0.0 **** 0.0
10647 H 22.310346 39.967258 28.731911 H 0.0 **** 0.0
10648 O 43.84528 4.483473 4.019651 O 0.0 **** 0.0
10649 H 44.69422 4.197224 4.463977 H 0.0 **** 0.0
10650 H 44.027491 5.267953 3.426816 H 0.0 **** 0.0
10651 O 26.445545 4.20918 15.264547 O 0.0 **** 0.0
10652 H 27.155756 3.635272 14.856756 H 0.0 **** 0.0
10653 H 25.678085 4.291929 14.628764 H 0.0 **** 0.0
10654 O 17.517798 10.342417 47.925225 O 0.0 **** 0.0
10655 H 17.570003 11.34107 47.930656 H 0.0 **** 0.0
10656 H 16.56115 10.058343 47.989959 H 0.0 **** 0.0
10657 O 14.585223 23.341247 46.789423 O 0.0 **** 0.0
10658 H 15.110383 23.762831 47.528704 H 0.0 **** 0.0
10659 H 13.697957 23.795643 46.709762 H 0.0 **** 0.0
10660 O 43.280047 34.747616 32.725021 O 0.0 **** 0.0
10661 H 43.267578 33.75669 32.859085 H 0.0 **** 0.0
10662 H 42.536199 35.010149 32.110344 H 0.0 **** 0.0
10663 O 26.245514 2.693792 10.254167 O 0.0 **** 0.0
10664 H 26.164619 1.701135 10.163885 H 0.0 **** 0.0
10665 H 25.336986 3.092067 10.380732 H 0.0 **** 0.0
10666 O 31.721073 22.586176 6.296612 O 0.0 **** 0.0
10667 H 32.315854 22.637689 5.494338 H 0.0 **** 0.0
10668 H 31.664421 23.486667 6.727853 H 0.0 **** 0.0
10669 O 15.407639 2.995314 31.567594 O 0.0 **** 0.0
10670 H 16.173673 2.860379 32.196121 H 0.0 **** 0.0
10671 H 14.850499 3.764187 31.881431 H 0.0 **** 0.0
10672 O 17.112713 22.636245 5.919886 O 0.0 **** 0.0
10673 H 16.163419 22.581673 6.229603 H 0.0 **** 0.0
10674 H 17.153923 23.144592 5.059683 H 0.0 **** 0.0
10675 O 23.293277 3.977365 39.628973 O 0.0 **** 0.0
10676 H 22.969711 3.032461 39.578734 H 0.0 **** 0.0
10677 H 24.292784 3.986158 39.66016 H 0.0 **** 0.0
10678 O 45.096139 35.172056 9.442071 O 0.0 **** 0.0
10679 H 45.734725 35.940879 9.476463 H 0.0 **** 0.0
10680 H 45.605481 34.313112 9.495441 H 0.0 **** 0.0
10681 O 19.309167 12.671129 32.783501 O 0.0 **** 0.0
10682 H 19.610467 12.008536 32.097752 H 0.0 **** 0.0
10683 H 18.437638 12.374019 33.173662 H 0.0 **** 0.0
10684 O 41.712723 38.584166 14.945879 O 0.0 **** 0.0
10685 H 41.511402 39.4091 14.417658 H 0.0 **** 0.0
10686 H 41.409545 37.779378 14.435524 H 0.0 **** 0.0
10687 O 5.424986 36.726231 18.908815 O 0.0 **** 0.0
10688 H 5.857091 37.596117 19.14682 H 0.0 **** 0.0
10689 H 4.452768 36.875432 18.728275 H 0.0 **** 0.0
10690 O 23.670379 25.979998 17.425956 O 0.0 **** 0.0
10691 H 22.68027 26.120349 17.419098 H 0.0 **** 0.0
10692 H 23.993798 25.93312 18.371084 H 0.0 **** 0.0
10693 O 44.739649 23.876783 45.856813 O 0.0 **** 0.0
10694 H 45.308329 23.089003 46.093601 H 0.0 **** 0.0
10695 H 45.030923 24.670598 46.390742 H 0.0 **** 0.0
10696 O 21.766135 6.932999 13.466904 O 0.0 **** 0.0
10697 H 22.47355 6.226175 13.461847 H 0.0 **** 0.0
10698 H 22.156651 7.797624 13.1507 H 0.0 **** 0.0
10699 O 19.303386 0.792384 4.607228 O 0.0 **** 0.0
10700 H 20.254507 0.680461 4.895159 H 0.0 **** 0.0
10701 H 18.770054 6e-06 4.903466 H 0.0 **** 0.0
10702 O 16.534468 30.641001 38.164579 O 0.0 **** 0.0
10703 H 15.872417 29.953645 38.463399 H 0.0 **** 0.0
10704 H 17.331705 30.185656 37.768173 H 0.0 **** 0.0
10705 O 0.184912 0.238962 45.811196 O 0.0 **** 0.0
10706 H -0.000798 1.180515 46.092358 H 0.0 **** 0.0
10707 H 1.125593 -0.001106 46.051091 H 0.0 **** 0.0
10708 O 39.534352 40.046728 1.671079 O 0.0 **** 0.0
10709 H 39.109006 39.169081 1.892168 H 0.0 **** 0.0
10710 H 39.004104 40.503509 0.956761 H 0.0 **** 0.0
10711 O 23.554872 13.614721 25.890446 O 0.0 **** 0.0
10712 H 23.538849 12.890238 26.579598 H 0.0 **** 0.0
10713 H 22.95921 13.362473 25.127805 H 0.0 **** 0.0
10714 O 43.793128 41.454137 42.642721 O 0.0 **** 0.0
10715 H 43.842175 40.940721 41.785947 H 0.0 **** 0.0
10716 H 42.851026 41.45354 42.978142 H 0.0 **** 0.0
10717 O 19.386874 29.63859 2.927305 O 0.0 **** 0.0
10718 H 19.282076 29.089429 3.756462 H 0.0 **** 0.0
10719 H 20.077917 30.345013 3.080567 H 0.0 **** 0.0
10720 O 28.413517 33.764993 41.976775 O 0.0 **** 0.0
10721 H 27.835064 34.509999 42.309072 H 0.0 **** 0.0
10722 H 28.120905 33.500303 41.057874 H 0.0 **** 0.0
10723 O 10.6669 26.235892 8.02718 O 0.0 **** 0.0
10724 H 10.81607 27.224531 8.047307 H 0.0 **** 0.0
10725 H 9.68488 26.046953 8.027173 H 0.0 **** 0.0
10726 O 31.595198 18.438608 36.506921 O 0.0 **** 0.0
10727 H 31.811083 17.576617 36.965645 H 0.0 **** 0.0
10728 H 32.000324 19.197822 37.016363 H 0.0 **** 0.0
10729 O 31.542989 31.281162 23.393978 O 0.0 **** 0.0
10730 H 31.613228 30.301025 23.579611 H 0.0 **** 0.0
10731 H 30.664906 31.475437 22.95661 H 0.0 **** 0.0
10732 O 37.598665 27.59325 24.477273 O 0.0 **** 0.0
10733 H 37.509716 28.552448 24.74577 H 0.0 **** 0.0
10734 H 38.547479 27.404748 24.223733 H 0.0 **** 0.0
10735 O 30.03702 9.485921 46.054253 O 0.0 **** 0.0
10736 H 30.503008 10.346463 45.848375 H 0.0 **** 0.0
10737 H 30.694469 8.733372 46.015611 H 0.0 **** 0.0
10738 O 39.671687 43.213939 23.664717 O 0.0 **** 0.0
10739 H 39.751529 42.635276 22.853029 H 0.0 **** 0.0
10740 H 40.506321 43.139453 24.210521 H 0.0 **** 0.0
10741 O 44.096247 1.88834 40.958841 O 0.0 **** 0.0
10742 H 44.306596 0.937973 40.729453 H 0.0 **** 0.0
10743 H 44.873033 2.469528 40.716176 H 0.0 **** 0.0
10744 O 6.895563 2.557251 2.482682 O 0.0 **** 0.0
10745 H 7.410013 2.573739 1.625283 H 0.0 **** 0.0
10746 H 6.918029 3.464698 2.902324 H 0.0 **** 0.0
10747 O 30.575525 20.502773 29.007578 O 0.0 **** 0.0
10748 H 30.403369 21.429512 29.341613 H 0.0 **** 0.0
10749 H 31.560852 20.332943 28.988829 H 0.0 **** 0.0
10750 O 12.153818 17.288358 34.732048 O 0.0 **** 0.0
10751 H 11.50508 17.954297 34.363636 H 0.0 **** 0.0
10752 H 11.725191 16.785676 35.482816 H 0.0 **** 0.0
10753 O 46.832009 35.834382 22.89761 O 0.0 **** 0.0
10754 H 46.84529 35.673836 23.884581 H 0.0 **** 0.0
10755 H 46.636787 34.976103 22.422943 H 0.0 **** 0.0
10756 O 19.115167 10.43243 17.301519 O 0.0 **** 0.0
10757 H 19.683962 9.877152 17.908314 H 0.0 **** 0.0
10758 H 18.153946 10.188144 17.429749 H 0.0 **** 0.0
10759 O 10.219018 30.242928 0.594372 O 0.0 **** 0.0
10760 H 10.756796 29.399806 0.592979 H 0.0 **** 0.0
10761 H 9.246083 30.017731 0.541973 H 0.0 **** 0.0
10762 O 3.655367 4.205519 28.6611 O 0.0 **** 0.0
10763 H 3.573579 4.376935 27.67927 H 0.0 **** 0.0
10764 H 4.432764 4.718404 29.025334 H 0.0 **** 0.0
10765 O 7.420081 47.020593 5.642028 O 0.0 **** 0.0
10766 H 6.760358 47.192985 4.910516 H 0.0 **** 0.0
10767 H 7.41198 46.048304 5.875806 H 0.0 **** 0.0
10768 O 0.690033 7.816499 22.845862 O 0.0 **** 0.0
10769 H 1.510043 8.217988 22.437875 H 0.0 **** 0.0
10770 H -0.001592 7.678503 22.136866 H 0.0 **** 0.0
10771 O 11.251823 35.396796 8.198298 O 0.0 **** 0.0
10772 H 12.152023 34.968516 8.277542 H 0.0 **** 0.0
10773 H 11.332911 36.250104 7.683172 H 0.0 **** 0.0
10774 O 16.299491 5.89475 32.986767 O 0.0 **** 0.0
10775 H 16.209313 4.978244 33.376572 H 0.0 **** 0.0
10776 H 17.231003 6.021743 32.645854 H 0.0 **** 0.0
10777 O 40.308892 38.74802 28.081073 O 0.0 **** 0.0
10778 H 40.714449 37.835323 28.030379 H 0.0 **** 0.0
10779 H 39.800194 38.933836 27.240382 H 0.0 **** 0.0
10780 O 20.463441 4.32144 40.380357 O 0.0 **** 0.0
10781 H 21.191684 3.800338 40.825528 H 0.0 **** 0.0
10782 H 19.600699 3.821747 40.45811 H 0.0 **** 0.0
10783 O 14.83712 3.188298 35.896529 O 0.0 **** 0.0
10784 H 15.594315 2.720721 35.440361 H 0.0 **** 0.0
10785 H 15.151639 4.071894 36.243516 H 0.0 **** 0.0
10786 O 33.305604 42.48763 8.927162 O 0.0 **** 0.0
10787 H 33.57214 43.449949 8.981606 H 0.0 **** 0.0
10788 H 32.359466 42.421287 8.61017 H 0.0 **** 0.0
10789 O 17.006712 44.000847 22.387713 O 0.0 **** 0.0
10790 H 16.444749 44.761551 22.062765 H 0.0 **** 0.0
10791 H 16.451932 43.169749 22.427187 H 0.0 **** 0.0
10792 O 30.79585 10.410941 22.829243 O 0.0 **** 0.0
10793 H 31.190662 9.708428 23.42141 H 0.0 **** 0.0
10794 H 30.444327 9.985031 21.995519 H 0.0 **** 0.0
10795 O 18.840016 10.122965 33.151523 O 0.0 **** 0.0
10796 H 19.717374 9.882654 33.566923 H 0.0 **** 0.0
10797 H 18.169585 10.305411 33.870757 H 0.0 **** 0.0
10798 O 17.246401 16.636755 9.122976 O 0.0 **** 0.0
10799 H 16.702602 17.472387 9.200851 H 0.0 **** 0.0
10800 H 17.214487 16.305016 8.180111 H 0.0 **** 0.0
10801 O 24.001925 32.210206 39.739688 O 0.0 **** 0.0
10802 H 24.162181 31.229986 39.623285 H 0.0 **** 0.0
10803 H 23.033488 32.409661 39.589988 H 0.0 **** 0.0
10804 O 4.100887 1.839712 4.484388 O 0.0 **** 0.0
10805 H 5.020937 2.097478 4.189215 H 0.0 **** 0.0
10806 H 3.596769 2.659017 4.757641 H 0.0 **** 0.0
10807 O 19.99893 19.069568 16.248837 O 0.0 **** 0.0
10808 H 19.019829 19.196131 16.408226 H 0.0 **** 0.0
10809 H 20.267602 18.150694 16.537886 H 0.0 **** 0.0
10810 O 18.375563 30.762125 5.868245 O 0.0 **** 0.0
10811 H 18.523038 31.348665 5.071825 H 0.0 **** 0.0
10812 H 19.166548 30.162852 5.991842 H 0.0 **** 0.0
10813 O 4.630368 15.524083 15.640582 O 0.0 **** 0.0
10814 H 4.12302 14.917628 15.028313 H 0.0 **** 0.0
10815 H 5.10094 16.223337 15.102373 H 0.0 **** 0.0
10816 O 47.260198 35.810934 3.010683 O 0.0 **** 0.0
10817 H 47.195319 35.499658 3.958819 H 0.0 **** 0.0
10818 H 46.344818 35.85244 2.61016 H 0.0 **** 0.0
10819 O 33.625637 34.610712 37.057624 O 0.0 **** 0.0
10820 H 34.0591 33.709851 37.032673 H 0.0 **** 0.0
10821 H 32.663375 34.524819 36.799291 H 0.0 **** 0.0
10822 O 10.349397 45.709907 0.779259 O 0.0 **** 0.0
10823 H 10.449712 46.51686 1.361347 H 0.0 **** 0.0
10824 H 9.469613 45.748109 0.305356 H 0.0 **** 0.0
10825 O 26.891023 32.515068 14.674539 O 0.0 **** 0.0
10826 H 27.045794 32.128152 13.765471 H 0.0 **** 0.0
10827 H 25.930809 32.779326 14.765206 H 0.0 **** 0.0
10828 O 29.967674 18.232879 37.973599 O 0.0 **** 0.0
10829 H 29.032755 17.886978 37.89397 H 0.0 **** 0.0
10830 H 29.947985 19.16838 38.326463 H 0.0 **** 0.0
10831 O 36.434643 7.583398 0.203372 O 0.0 **** 0.0
10832 H 37.410065 7.499066 -0.000351 H 0.0 **** 0.0
10833 H 36.244996 8.501608 0.551205 H 0.0 **** 0.0
10834 O 39.531968 8.107029 46.280487 O 0.0 **** 0.0
10835 H 38.959066 8.584309 46.946858 H 0.0 **** 0.0
10836 H 39.918165 7.285786 46.700576 H 0.0 **** 0.0
10837 O 5.962505 27.101066 43.147805 O 0.0 **** 0.0
10838 H 6.873684 27.513062 43.156424 H 0.0 **** 0.0
10839 H 6.04729 26.104636 43.146576 H 0.0 **** 0.0
10840 O 6.259679 16.771456 20.772179 O 0.0 **** 0.0
10841 H 5.753546 17.616086 20.946801 H 0.0 **** 0.0
10842 H 5.661592 15.985759 20.930403 H 0.0 **** 0.0
10843 O 35.245128 14.898721 15.907571 O 0.0 **** 0.0
10844 H 34.340797 14.935292 15.482236 H 0.0 **** 0.0
10845 H 35.854471 15.547277 15.451349 H 0.0 **** 0.0
10846 O 5.85705 19.986433 32.26162 O 0.0 **** 0.0
10847 H 5.28588 20.45269 31.586023 H 0.0 **** 0.0
10848 H 6.562045 20.614023 32.592036 H 0.0 **** 0.0
10849 O 36.466611 19.716988 33.69542 O 0.0 **** 0.0
10850 H 35.561657 19.29282 33.660716 H 0.0 **** 0.0
10851 H 36.367132 20.7107 33.747402 H 0.0 **** 0.0
10852 O 11.183181 7.867334 14.297758 O 0.0 **** 0.0
10853 H 11.734913 7.758764 13.470795 H 0.0 **** 0.0
10854 H 10.21795 7.730781 14.074723 H 0.0 **** 0.0
10855 O 38.330973 18.623031 46.289807 O 0.0 **** 0.0
10856 H 38.45929 17.635555 46.381937 H 0.0 **** 0.0
10857 H 37.628152 18.805046 45.602073 H 0.0 **** 0.0
10858 O 44.983192 5.73651 22.633485 O 0.0 **** 0.0
10859 H 45.230077 6.702368 22.554552 H 0.0 **** 0.0
10860 H 45.322986 5.37557 23.502004 H 0.0 **** 0.0
10861 O 9.673532 22.62612 6.751286 O 0.0 **** 0.0
10862 H 8.916465 23.22291 6.485288 H 0.0 **** 0.0
10863 H 10.265277 22.466156 5.961151 H 0.0 **** 0.0
10864 O 14.07993 11.968379 7.104959 O 0.0 **** 0.0
10865 H 14.320631 12.198405 8.04794 H 0.0 **** 0.0
10866 H 14.302904 11.009629 6.928482 H 0.0 **** 0.0
10867 O 40.901597 18.226833 47.800199 O 0.0 **** 0.0
10868 H 41.596552 17.52136 47.660888 H 0.0 **** 0.0
10869 H 40.02272 17.79389 48.000694 H 0.0 **** 0.0
10870 O 13.365373 31.88137 31.026512 O 0.0 **** 0.0
10871 H 12.567281 31.29378 30.892903 H 0.0 **** 0.0
10872 H 13.090481 32.839701 30.948409 H 0.0 **** 0.0
10873 O 33.98305 27.828027 37.865382 O 0.0 **** 0.0
10874 H 34.589568 28.555562 37.544614 H 0.0 **** 0.0
10875 H 33.593873 28.08447 38.750165 H 0.0 **** 0.0
10876 O 33.901299 41.092282 35.443095 O 0.0 **** 0.0
10877 H 34.444498 40.302863 35.157061 H 0.0 **** 0.0
10878 H 32.928827 40.881158 35.344155 H 0.0 **** 0.0
10879 O 3.22723 42.76657 30.143148 O 0.0 **** 0.0
10880 H 3.578985 41.881052 30.446775 H 0.0 **** 0.0
10881 H 2.877973 42.684148 29.209719 H 0.0 **** 0.0
10882 O 29.483433 11.450138 24.431707 O 0.0 **** 0.0
10883 H 30.284067 11.717451 24.967982 H 0.0 **** 0.0
10884 H 29.388279 12.062669 23.646969 H 0.0 **** 0.0
10885 O 2.3681 1.033441 44.385219 O 0.0 **** 0.0
10886 H 1.418943 1.344379 44.33542 H 0.0 **** 0.0
10887 H 2.40182 0.043025 44.251045 H 0.0 **** 0.0
10888 O 4.798076 39.841044 47.515271 O 0.0 **** 0.0
10889 H 4.78775 38.845929 47.41677 H 0.0 **** 0.0
10890 H 3.858741 40.181542 47.557371 H 0.0 **** 0.0
10891 O 30.666096 16.069325 29.601492 O 0.0 **** 0.0
10892 H 29.677561 16.159277 29.723025 H 0.0 **** 0.0
10893 H 30.956963 15.159727 29.898294 H 0.0 **** 0.0
10894 O 18.476708 15.522351 25.083617 O 0.0 **** 0.0
10895 H 17.701993 16.13459 25.241866 H 0.0 **** 0.0
10896 H 18.401329 14.727098 25.685243 H 0.0 **** 0.0
10897 O 46.825659 47.361348 35.80077 O 0.0 **** 0.0
10898 H 47.55903 47.961865 35.482008 H 0.0 **** 0.0
10899 H 46.583269 46.717238 35.075213 H 0.0 **** 0.0
10900 O 14.023684 42.73605 0.422965 O 0.0 **** 0.0
10901 H 14.226793 43.690479 0.641768 H 0.0 **** 0.0
10902 H 14.83158 42.174152 0.600839 H 0.0 **** 0.0
10903 O 9.787217 9.281425 28.653141 O 0.0 **** 0.0
10904 H 9.447664 8.614295 29.316244 H 0.0 **** 0.0
10905 H 9.800505 8.868867 27.742273 H 0.0 **** 0.0
10906 O 43.585322 20.42536 10.63404 O 0.0 **** 0.0
10907 H 44.176297 20.924916 11.267487 H 0.0 **** 0.0
10908 H 42.6292 20.64877 10.823729 H 0.0 **** 0.0
10909 O 28.7033 27.847413 23.37853 O 0.0 **** 0.0
10910 H 28.099639 28.510894 23.820627 H 0.0 **** 0.0
10911 H 29.650405 28.160981 23.447301 H 0.0 **** 0.0
10912 O 43.88192 47.023141 25.244301 O 0.0 **** 0.0
10913 H 44.5824 46.330949 25.41826 H 0.0 **** 0.0
10914 H 43.007453 46.71357 25.617845 H 0.0 **** 0.0
10915 O 35.760853 3.708102 5.723682 O 0.0 **** 0.0
10916 H 34.894203 4.111704 6.017087 H 0.0 **** 0.0
10917 H 36.408766 4.436254 5.499925 H 0.0 **** 0.0
10918 O 2.585614 31.71631 10.924581 O 0.0 **** 0.0
10919 H 3.201463 32.006393 10.19202 H 0.0 **** 0.0
10920 H 3.107306 31.591032 11.768503 H 0.0 **** 0.0
10921 O 7.418515 48.000195 43.607356 O 0.0 **** 0.0
10922 H 6.569963 47.722876 43.15667 H 0.0 **** 0.0
10923 H 8.160442 47.392549 43.323853 H 0.0 **** 0.0
10924 O 34.545748 13.857928 5.530397 O 0.0 **** 0.0
10925 H 34.279184 13.968895 4.572956 H 0.0 **** 0.0
10926 H 34.510196 12.889207 5.776117 H 0.0 **** 0.0
10927 O 13.769556 9.475781 38.92651 O 0.0 **** 0.0
10928 H 14.679739 9.16643 39.202067 H 0.0 **** 0.0
10929 H 13.232524 8.692974 38.61207 H 0.0 **** 0.0
10930 O 43.836061 35.723723 19.208383 O 0.0 **** 0.0
10931 H 42.984648 35.929333 19.690964 H 0.0 **** 0.0
10932 H 44.492566 35.322287 19.847063 H 0.0 **** 0.0
10933 O 26.142814 38.986862 35.266986 O 0.0 **** 0.0
10934 H 25.873732 39.859145 34.858598 H 0.0 **** 0.0
10935 H 25.661966 38.240777 34.806329 H 0.0 **** 0.0
10936 O 28.699556 19.525948 36.465596 O 0.0 **** 0.0
10937 H 28.53998 20.364606 36.986414 H 0.0 **** 0.0
10938 H 29.630056 19.533084 36.099288 H 0.0 **** 0.0
10939 O 26.115161 6.758005 14.385868 O 0.0 **** 0.0
10940 H 26.169888 7.754434 14.321077 H 0.0 **** 0.0
10941 H 26.975168 6.39994 14.749514 H 0.0 **** 0.0
10942 O 32.265966 40.241108 43.016734 O 0.0 **** 0.0
10943 H 32.547232 39.882442 43.906852 H 0.0 **** 0.0
10944 H 31.777947 39.530312 42.510108 H 0.0 **** 0.0
10945 O 16.329381 35.401775 42.4727 O 0.0 **** 0.0
10946 H 16.434091 34.885082 43.322481 H 0.0 **** 0.0
10947 H 15.367229 35.643048 42.345761 H 0.0 **** 0.0
10948 O 36.002269 33.060444 29.116676 O 0.0 **** 0.0
10949 H 36.974144 32.831669 29.17309 H 0.0 **** 0.0
10950 H 35.465555 32.21965 29.045502 H 0.0 **** 0.0
10951 O 33.100804 1.443286 12.353964 O 0.0 **** 0.0
10952 H 32.297713 1.055014 12.806018 H 0.0 **** 0.0
10953 H 33.757769 0.715126 12.158404 H 0.0 **** 0.0
10954 O 32.458898 10.811338 14.637995 O 0.0 **** 0.0
10955 H 33.152444 10.294268 14.136303 H 0.0 **** 0.0
10956 H 32.194791 11.616668 14.107191 H 0.0 **** 0.0
10957 O 32.448596 11.75438 33.557847 O 0.0 **** 0.0
10958 H 33.341591 12.201713 33.608015 H 0.0 **** 0.0
10959 H 32.574898 10.764478 33.493006 H 0.0 **** 0.0
10960 O 42.971257 13.822438 23.939703 O 0.0 **** 0.0
10961 H 43.657997 14.484776 23.640104 H 0.0 **** 0.0
10962 H 42.930576 13.06608 23.286762 H 0.0 **** 0.0
10963 O 15.90587 33.238268 23.233574 O 0.0 **** 0.0
10964 H 16.634463 32.963351 23.860978 H 0.0 **** 0.0
10965 H 15.859278 32.590878 22.472799 H 0.0 **** 0.0
10966 O 24.119768 41.302338 41.225462 O 0.0 **** 0.0
10967 H 25.067736 41.045109 41.037705 H 0.0 **** 0.0
10968 H 24.079061 42.272029 41.466516 H 0.0 **** 0.0
10969 O 32.760661 5.954886 37.382227 O 0.0 **** 0.0
10970 H 33.519861 5.953471 36.731323 H 0.0 **** 0.0
10971 H 32.671721 6.864315 37.788541 H 0.0 **** 0.0
10972 O 36.701783 33.388871 7.638432 O 0.0 **** 0.0
10973 H 36.465526 32.417527 7.665557 H 0.0 **** 0.0
10974 H 37.696685 33.489815 7.631844 H 0.0 **** 0.0
10975 O 1.663811 30.625588 44.860001 O 0.0 **** 0.0
10976 H 0.706617 30.447333 44.631815 H 0.0 **** 0.0
10977 H 1.73739 31.509916 45.321101 H 0.0 **** 0.0
10978 O 16.97249 1.108402 9.835877 O 0.0 **** 0.0
10979 H 16.007008 1.321376 9.986044 H 0.0 **** 0.0
10980 H 17.518717 1.93802 9.951773 H 0.0 **** 0.0
10981 O 38.534761 28.457194 36.765234 O 0.0 **** 0.0
10982 H 38.11563 28.427646 37.672714 H 0.0 **** 0.0
10983 H 39.275959 29.128521 36.762164 H 0.0 **** 0.0
10984 O 5.55749 12.344745 34.692738 O 0.0 **** 0.0
10985 H 5.184029 11.422463 34.792667 H 0.0 **** 0.0
10986 H 5.46918 12.835776 35.559428 H 0.0 **** 0.0
10987 O 41.227597 47.048058 31.883258 O 0.0 **** 0.0
10988 H 40.504935 47.107541 32.571941 H 0.0 **** 0.0
10989 H 40.889723 46.544128 31.0883 H 0.0 **** 0.0
10990 O 30.342589 47.070416 13.749278 O 0.0 **** 0.0
10991 H 30.78283 46.516237 13.042783 H 0.0 **** 0.0
10992 H 30.708164 48.000741 13.719067 H 0.0 **** 0.0
10993 O 0.78157 27.542786 24.044452 O 0.0 **** 0.0
10994 H 0.136059 28.187077 24.454656 H 0.0 **** 0.0
10995 H 1.399637 27.195647 24.749825 H 0.0 **** 0.0
10996 O 37.214855 36.646612 14.312933 O 0.0 **** 0.0
10997 H 36.486107 37.316145 14.456864 H 0.0 **** 0.0
10998 H 36.822769 35.726928 14.290315 H 0.0 **** 0.0
10999 O 0.497448 1.359006 37.029694 O 0.0 **** 0.0
11000 H -0.000575 1.860712 36.322356 H 0.0 **** 0.0
11001 H 1.248994 1.923091 37.37182 H 0.0 **** 0.0
11002 O 12.509156 32.427349 16.743219 O 0.0 **** 0.0
11003 H 12.437589 32.550905 17.733004 H 0.0 **** 0.0
11004 H 12.170246 33.246147 16.279782 H 0.0 **** 0.0
11005 O 1.397662 18.967874 47.284927 O 0.0 **** 0.0
11006 H 0.97958 19.591866 46.624697 H 0.0 **** 0.0
11007 H 2.193136 19.40779 47.701771 H 0.0 **** 0.0
11008 O 31.963792 26.535293 11.089225 O 0.0 **** 0.0
11009 H 31.112186 26.989357 10.827202 H 0.0 **** 0.0
11010 H 32.688616 27.217268 11.187222 H 0.0 **** 0.0
11011 O 37.774023 19.732204 -0.043857 O 0.0 **** 0.0
11012 H 38.216972 18.84147 0.058381 H 0.0 **** 0.0
11013 H 36.787211 19.630086 0.081986 H 0.0 **** 0.0
11014 O 48.08263 10.903671 26.177942 O 0.0 **** 0.0
11015 H 47.755994 11.845721 26.254843 H 0.0 **** 0.0
11016 H 47.327206 10.310732 25.89898 H 0.0 **** 0.0
11017 O 19.416189 2.865004 29.120477 O 0.0 **** 0.0
11018 H 18.44435 2.672427 28.984446 H 0.0 **** 0.0
11019 H 19.955283 2.068419 28.846812 H 0.0 **** 0.0
11020 O 40.233134 19.607423 4.115627 O 0.0 **** 0.0
11021 H 40.863741 18.8721 3.867238 H 0.0 **** 0.0
11022 H 40.338125 20.367393 3.474156 H 0.0 **** 0.0
11023 O 27.148845 15.745079 30.668606 O 0.0 **** 0.0
11024 H 27.596481 15.460735 29.820765 H 0.0 **** 0.0
11025 H 27.82596 16.149117 31.283694 H 0.0 **** 0.0
11026 O 17.123257 35.164759 29.317371 O 0.0 **** 0.0
11027 H 18.100016 35.368124 29.249193 H 0.0 **** 0.0
11028 H 16.934712 34.285096 28.880671 H 0.0 **** 0.0
11029 O 37.026961 40.015267 34.828609 O 0.0 **** 0.0
11030 H 37.84071 39.537043 34.498191 H 0.0 **** 0.0
11031 H 36.482277 39.395183 35.393302 H 0.0 **** 0.0
11032 O 27.411076 1.476479 30.364789 O 0.0 **** 0.0
11033 H 27.120796 1.395725 31.318351 H 0.0 **** 0.0
11034 H 26.990813 2.286597 29.955948 H 0.0 **** 0.0
11035 O 5.894298 45.565304 18.429484 O 0.0 **** 0.0
11036 H 6.151988 46.531531 18.437424 H 0.0 **** 0.0
11037 H 5.377453 45.365054 17.597117 H 0.0 **** 0.0
11038 O 30.213858 12.489076 5.098665 O 0.0 **** 0.0
11039 H 30.363235 12.289973 4.130105 H 0.0 **** 0.0
11040 H 29.369488 12.048193 5.403171 H 0.0 **** 0.0
11041 O 31.178568 8.133327 7.325215 O 0.0 **** 0.0
11042 H 30.859051 8.929675 6.811598 H 0.0 **** 0.0
11043 H 32.086455 8.320933 7.700194 H 0.0 **** 0.0
11044 O 34.289749 6.778753 0.080253 O 0.0 **** 0.0
11045 H 34.238768 7.559807 0.702682 H 0.0 **** 0.0
11046 H 33.385108 6.361178 -0.005302 H 0.0 **** 0.0
11047 O 20.576776 21.207702 3.287417 O 0.0 **** 0.0
11048 H 20.22214 20.741356 4.09786 H 0.0 **** 0.0
11049 H 20.085088 22.068598 3.156407 H 0.0 **** 0.0
11050 O 36.727085 9.527449 35.403303 O 0.0 **** 0.0
11051 H 37.659562 9.879977 35.324095 H 0.0 **** 0.0
11052 H 36.285679 9.929829 36.205372 H 0.0 **** 0.0
11053 O 8.383085 24.30618 34.61298 O 0.0 **** 0.0
11054 H 8.397898 23.306523 34.635964 H 0.0 **** 0.0
11055 H 7.473762 24.632053 34.871827 H 0.0 **** 0.0
11056 O 29.73509 18.065699 30.819718 O 0.0 **** 0.0
11057 H 30.067445 18.540142 30.004545 H 0.0 **** 0.0
11058 H 30.482021 17.540328 31.227323 H 0.0 **** 0.0
11059 O 17.854298 31.147402 28.338113 O 0.0 **** 0.0
11060 H 18.83554 31.217617 28.1584 H 0.0 **** 0.0
11061 H 17.493754 30.322903 27.901912 H 0.0 **** 0.0
11062 O 33.308705 20.796101 43.811067 O 0.0 **** 0.0
11063 H 32.402155 20.880351 44.224748 H 0.0 **** 0.0
11064 H 33.5471 19.828734 43.724857 H 0.0 **** 0.0
11065 O 34.654991 21.430622 45.81749 O 0.0 **** 0.0
11066 H 34.910389 20.463899 45.800666 H 0.0 **** 0.0
11067 H 34.882883 21.850869 44.939128 H 0.0 **** 0.0
11068 O 38.071398 31.775337 6.305956 O 0.0 **** 0.0
11069 H 38.706539 32.467483 5.963041 H 0.0 **** 0.0
11070 H 37.683646 31.268252 5.536166 H 0.0 **** 0.0
11071 O 9.757067 2.037475 23.973533 O 0.0 **** 0.0
11072 H 9.873801 2.706268 24.707802 H 0.0 **** 0.0
11073 H 10.147742 2.399979 23.127349 H 0.0 **** 0.0
11074 O 12.770376 27.94078 15.064655 O 0.0 **** 0.0
11075 H 11.866263 28.177047 14.708536 H 0.0 **** 0.0
11076 H 13.432995 28.632389 14.777121 H 0.0 **** 0.0
11077 O 7.123024 41.255766 27.726203 O 0.0 **** 0.0
11078 H 8.00727 41.057743 28.149241 H 0.0 **** 0.0
11079 H 7.055349 42.235696 27.538534 H 0.0 **** 0.0
11080 O 38.605688 11.376368 42.296437 O 0.0 **** 0.0
11081 H 39.061024 10.525412 42.558365 H 0.0 **** 0.0
11082 H 38.369249 11.894522 43.118432 H 0.0 **** 0.0
11083 O 18.24087 11.882162 37.643523 O 0.0 **** 0.0
11084 H 17.587382 11.363777 37.091894 H 0.0 **** 0.0
11085 H 17.849342 12.772914 37.874454 H 0.0 **** 0.0
11086 O 33.55027 27.419681 28.518019 O 0.0 **** 0.0
11087 H 32.89206 28.168732 28.593815 H 0.0 **** 0.0
11088 H 33.065793 26.545524 28.552571 H 0.0 **** 0.0
11089 O 22.078126 31.309596 28.256083 O 0.0 **** 0.0
11090 H 22.306059 30.382728 27.957713 H 0.0 **** 0.0
11091 H 21.113533 31.493024 28.066407 H 0.0 **** 0.0
11092 O 30.179461 9.940996 26.277492 O 0.0 **** 0.0
11093 H 30.213757 10.129905 27.25892 H 0.0 **** 0.0
11094 H 31.056224 9.563027 25.980018 H 0.0 **** 0.0
11095 O 30.641657 13.084182 47.216161 O 0.0 **** 0.0
11096 H 30.643008 13.716405 47.990987 H 0.0 **** 0.0
11097 H 31.550072 13.067115 46.798365 H 0.0 **** 0.0
11098 O 0.371281 33.390188 16.551501 O 0.0 **** 0.0
11099 H 0.007682 34.048468 17.210688 H 0.0 **** 0.0
11100 H -0.000121 33.587337 15.644167 H 0.0 **** 0.0
11101 O 30.003617 26.105884 19.421329 O 0.0 **** 0.0
11102 H 30.455151 26.99813 19.430103 H 0.0 **** 0.0
11103 H 30.660393 25.39744 19.679817 H 0.0 **** 0.0
11104 O 0.667887 16.83442 37.53859 O 0.0 **** 0.0
11105 H 1.631511 16.67983 37.320431 H 0.0 **** 0.0
11106 H 0.211234 15.954872 37.672476 H 0.0 **** 0.0
11107 O 23.314093 38.687664 5.127622 O 0.0 **** 0.0
11108 H 23.300834 38.511853 6.111989 H 0.0 **** 0.0
11109 H 24.160143 39.162555 4.88526 H 0.0 **** 0.0
11110 O 41.659368 14.178484 29.924359 O 0.0 **** 0.0
11111 H 42.242246 14.956181 30.159951 H 0.0 **** 0.0
11112 H 42.157168 13.561503 29.314774 H 0.0 **** 0.0
11113 O 21.429561 6.281653 40.136139 O 0.0 **** 0.0
11114 H 22.20966 5.731192 40.433629 H 0.0 **** 0.0
11115 H 21.75618 7.156141 39.777455 H 0.0 **** 0.0
11116 O 7.475994 38.258017 13.775936 O 0.0 **** 0.0
11117 H 8.415071 38.058906 13.495666 H 0.0 **** 0.0
11118 H 6.872808 37.522951 13.466247 H 0.0 **** 0.0
11119 O 2.244878 26.367696 22.895048 O 0.0 **** 0.0
11120 H 2.752813 27.227954 22.940003 H 0.0 **** 0.0
11121 H 2.880002 25.600548 22.985404 H 0.0 **** 0.0
11122 O 18.85472 15.191339 37.55759 O 0.0 **** 0.0
11123 H 18.868035 15.376209 38.540295 H 0.0 **** 0.0
11124 H 18.865726 16.056177 37.055598 H 0.0 **** 0.0
11125 O 47.41326 7.577755 24.163446 O 0.0 **** 0.0
11126 H 47.9814 8.050648 23.489909 H 0.0 **** 0.0
11127 H 46.452475 7.808969 24.010165 H 0.0 **** 0.0
11128 O 37.601859 9.346682 24.712595 O 0.0 **** 0.0
11129 H 37.974955 8.721641 25.398296 H 0.0 **** 0.0
11130 H 38.285677 9.507166 24.000766 H 0.0 **** 0.0
11131 O 35.951465 24.75953 21.609432 O 0.0 **** 0.0
11132 H 36.109625 24.297862 22.482308 H 0.0 **** 0.0
11133 H 35.800396 24.077217 20.894107 H 0.0 **** 0.0
11134 O 28.806942 42.052246 6.688207 O 0.0 **** 0.0
11135 H 29.627698 41.834997 6.15979 H 0.0 **** 0.0
11136 H 28.353462 41.204405 6.963135 H 0.0 **** 0.0
11137 O 12.261683 29.282438 23.699467 O 0.0 **** 0.0
11138 H 12.081094 28.388241 23.289758 H 0.0 **** 0.0
11139 H 12.56712 29.918264 22.990596 H 0.0 **** 0.0
11140 O 4.219889 42.276912 43.724601 O 0.0 **** 0.0
11141 H 3.316758 42.659081 43.92047 H 0.0 **** 0.0
11142 H 4.861383 43.019509 43.531993 H 0.0 **** 0.0
11143 O 25.507084 35.515731 46.0983 O 0.0 **** 0.0
11144 H 24.684394 35.545813 45.53055 H 0.0 **** 0.0
11145 H 25.819876 36.44776 46.281458 H 0.0 **** 0.0
11146 O 39.994627 32.106465 47.360589 O 0.0 **** 0.0
11147 H 40.096176 31.344787 48.000587 H 0.0 **** 0.0
11148 H 39.045264 32.15679 47.050365 H 0.0 **** 0.0
11149 O 39.835328 39.842356 24.800543 O 0.0 **** 0.0
11150 H 40.332217 40.474993 25.394626 H 0.0 **** 0.0
11151 H 40.05766 38.901327 25.055683 H 0.0 **** 0.0
11152 O 39.178322 25.475818 8.306372 O 0.0 **** 0.0
11153 H 39.748406 26.084439 7.754423 H 0.0 **** 0.0
11154 H 39.719833 24.688552 8.601401 H 0.0 **** 0.0
11155 O 16.206416 25.10202 15.027356 O 0.0 **** 0.0
11156 H 16.733106 25.630639 14.361606 H 0.0 **** 0.0
11157 H 15.301107 25.512312 15.137536 H 0.0 **** 0.0
11158 O 35.219795 34.115471 1.83308 O 0.0 **** 0.0
11159 H 35.507591 34.033892 2.787324 H 0.0 **** 0.0
11160 H 35.691099 33.426217 1.282749 H 0.0 **** 0.0
11161 O 1.743569 30.857249 30.893207 O 0.0 **** 0.0
11162 H 1.073114 30.195154 30.558268 H 0.0 **** 0.0
11163 H 2.666231 30.500655 30.746244 H 0.0 **** 0.0
11164 O 45.414367 1.657 43.317832 O 0.0 **** 0.0
11165 H 46.270193 2.132203 43.113363 H 0.0 **** 0.0
11166 H 45.42588 0.751954 42.892601 H 0.0 **** 0.0
11167 O 36.956975 31.82289 41.981321 O 0.0 **** 0.0
11168 H 36.107986 32.156713 42.391007 H 0.0 **** 0.0
11169 H 37.709585 32.432275 42.230902 H 0.0 **** 0.0
11170 O 34.638306 11.210845 39.189647 O 0.0 **** 0.0
11171 H 33.958893 10.902685 38.523689 H 0.0 **** 0.0
11172 H 34.402028 12.129623 39.506005 H 0.0 **** 0.0
11173 O 37.607672 12.319292 26.366495 O 0.0 **** 0.0
11174 H 36.626897 12.154505 26.261672 H 0.0 **** 0.0
11175 H 38.087697 11.444312 26.430131 H 0.0 **** 0.0
11176 O 36.114847 4.321295 2.863035 O 0.0 **** 0.0
11177 H 35.169729 4.639574 2.937278 H 0.0 **** 0.0
11178 H 36.19217 3.409613 3.266669 H 0.0 **** 0.0
11179 O 22.077079 8.698929 37.294003 O 0.0 **** 0.0
11180 H 21.640201 9.187425 38.049365 H 0.0 **** 0.0
11181 H 21.604532 7.831012 37.140762 H 0.0 **** 0.0
11182 O 21.731793 0.764683 36.63858 O 0.0 **** 0.0
11183 H 21.927973 1.744646 36.603261 H 0.0 **** 0.0
11184 H 22.590859 0.253771 36.670814 H 0.0 **** 0.0
11185 O 13.813978 0.467806 35.74431 O 0.0 **** 0.0
11186 H 13.628681 0.003694 34.878095 H 0.0 **** 0.0
11187 H 14.783601 0.707614 35.793162 H 0.0 **** 0.0
11188 O 35.922626 37.406518 34.378182 O 0.0 **** 0.0
11189 H 35.099812 37.971184 34.442942 H 0.0 **** 0.0
11190 H 35.75029 36.516701 34.80078 H 0.0 **** 0.0
11191 O 43.148289 6.675762 17.52531 O 0.0 **** 0.0
11192 H 42.40376 7.209046 17.92699 H 0.0 **** 0.0
11193 H 43.899821 7.287018 17.277059 H 0.0 **** 0.0
11194 O 17.335621 45.106667 36.219019 O 0.0 **** 0.0
11195 H 18.2987 45.33598 36.360292 H 0.0 **** 0.0
11196 H 16.78794 45.943227 36.235616 H 0.0 **** 0.0
11197 O 26.021324 26.148052 33.786236 O 0.0 **** 0.0
11198 H 26.170146 26.217326 32.79977 H 0.0 **** 0.0
11199 H 25.111555 25.771143 33.960371 H 0.0 **** 0.0
11200 O 35.159042 13.868163 8.381268 O 0.0 **** 0.0
11201 H 34.392075 13.226429 8.379673 H 0.0 **** 0.0
11202 H 34.809591 14.805143 8.385278 H 0.0 **** 0.0
11203 O 7.608388 34.058005 3.155002 O 0.0 **** 0.0
11204 H 7.550257 33.501271 2.32631 H 0.0 **** 0.0
11205 H 8.266063 34.798015 3.01389 H 0.0 **** 0.0
11206 O 46.374501 28.04311 15.134368 O 0.0 **** 0.0
11207 H 45.957223 27.141673 15.249922 H 0.0 **** 0.0
11208 H 47.33151 27.935297 14.864974 H 0.0 **** 0.0
11209 O 13.089023 20.84166 37.272082 O 0.0 **** 0.0
11210 H 13.538776 21.329124 38.020523 H 0.0 **** 0.0
11211 H 12.152036 21.176419 37.171805 H 0.0 **** 0.0
11212 O 16.55226 15.340393 15.787926 O 0.0 **** 0.0
11213 H 16.246306 15.937412 16.529562 H 0.0 **** 0.0
11214 H 16.274677 14.399372 15.981549 H 0.0 **** 0.0
11215 O 5.752889 33.741184 37.692155 O 0.0 **** 0.0
11216 H 6.703497 33.441135 37.612297 H 0.0 **** 0.0
11217 H 5.151797 32.942218 37.712286 H 0.0 **** 0.0
11218 O 34.512346 14.120659 33.676 O 0.0 **** 0.0
11219 H 35.44682 14.475514 33.705995 H 0.0 **** 0.0
11220 H 33.870517 14.852191 33.906173 H 0.0 **** 0.0
11221 O 5.729128 19.49975 12.296641 O 0.0 **** 0.0
11222 H 6.577815 19.720744 11.816064 H 0.0 **** 0.0
11223 H 5.506451 20.236153 12.935538 H 0.0 **** 0.0
11224 O 15.542635 14.026292 7.965843 O 0.0 **** 0.0
11225 H 14.97574 14.538437 7.320553 H 0.0 **** 0.0
11226 H 15.782186 14.614231 8.738505 H 0.0 **** 0.0
11227 O 3.048172 9.361277 30.092442 O 0.0 **** 0.0
11228 H 2.749182 10.315563 30.09457 H 0.0 **** 0.0
11229 H 4.047551 9.325146 30.09319 H 0.0 **** 0.0
11230 O 14.134578 30.135209 25.400151 O 0.0 **** 0.0
11231 H 14.293338 30.339761 24.434223 H 0.0 **** 0.0
11232 H 13.576912 29.308815 25.478528 H 0.0 **** 0.0
11233 O 10.067251 10.792946 25.817086 O 0.0 **** 0.0
11234 H 9.117449 11.10451 25.846513 H 0.0 **** 0.0
11235 H 10.089048 9.794393 25.767291 H 0.0 **** 0.0
11236 O 11.214845 33.86362 2.747699 O 0.0 **** 0.0
11237 H 10.921678 34.326978 1.911389 H 0.0 **** 0.0
11238 H 12.04 34.304364 3.101151 H 0.0 **** 0.0
11239 O 8.085794 1.651327 39.445617 O 0.0 **** 0.0
11240 H 7.135161 1.690059 39.753612 H 0.0 **** 0.0
11241 H 8.236948 0.803894 38.936626 H 0.0 **** 0.0
11242 O 44.909898 11.871016 29.229523 O 0.0 **** 0.0
11243 H 43.910083 11.864491 29.209743 H 0.0 **** 0.0
11244 H 45.245259 10.950716 29.431126 H 0.0 **** 0.0
11245 O 7.674693 29.353747 15.583725 O 0.0 **** 0.0
11246 H 8.537463 29.513779 16.063392 H 0.0 **** 0.0
11247 H 7.539261 28.37062 15.460508 H 0.0 **** 0.0
11248 O 38.073618 30.123798 39.916199 O 0.0 **** 0.0
11249 H 38.778786 30.673999 40.3635 H 0.0 **** 0.0
11250 H 37.310944 29.982397 40.547386 H 0.0 **** 0.0
11251 O 4.742606 20.989382 23.091032 O 0.0 **** 0.0
11252 H 5.155082 20.604383 23.916684 H 0.0 **** 0.0
11253 H 5.205299 21.843844 22.854656 H 0.0 **** 0.0
11254 O 0.723302 42.528299 11.076958 O 0.0 **** 0.0
11255 H 0.975862 42.851606 10.164955 H 0.0 **** 0.0
11256 H -0.000199 43.110262 11.448346 H 0.0 **** 0.0
11257 O 44.01295 38.075441 20.259657 O 0.0 **** 0.0
11258 H 44.819367 38.548919 19.905294 H 0.0 **** 0.0
11259 H 44.301516 37.29133 20.809168 H 0.0 **** 0.0
11260 O 45.001097 18.089394 14.787366 O 0.0 **** 0.0
11261 H 44.186206 17.974079 15.355448 H 0.0 **** 0.0
11262 H 44.893309 18.899078 14.210428 H 0.0 **** 0.0
11263 O 10.505448 31.064889 5.955755 O 0.0 **** 0.0
11264 H 11.374229 30.610495 5.758759 H 0.0 **** 0.0
11265 H 10.643671 32.055173 5.972955 H 0.0 **** 0.0
11266 O 25.761893 40.972535 29.493295 O 0.0 **** 0.0
11267 H 25.429366 40.973254 28.550169 H 0.0 **** 0.0
11268 H 26.092176 40.058659 29.729527 H 0.0 **** 0.0
11269 O 13.074591 9.608405 46.061546 O 0.0 **** 0.0
11270 H 12.301562 9.101274 46.442736 H 0.0 **** 0.0
11271 H 12.785656 10.53994 45.84059 H 0.0 **** 0.0
11272 O 18.272242 1.773824 2.847244 O 0.0 **** 0.0
11273 H 17.547813 1.44021 3.450541 H 0.0 **** 0.0
11274 H 17.882382 2.402529 2.174338 H 0.0 **** 0.0
11275 O 14.845813 27.893759 39.348124 O 0.0 **** 0.0
11276 H 14.063024 28.11773 38.767485 H 0.0 **** 0.0
11277 H 15.280108 27.057233 39.013946 H 0.0 **** 0.0
11278 O 10.611094 0.000215 18.105576 O 0.0 **** 0.0
11279 H 10.525236 -0.006456 19.101893 H 0.0 **** 0.0
11280 H 10.785581 0.933759 17.792349 H 0.0 **** 0.0
11281 O 25.913907 12.202477 3.292545 O 0.0 **** 0.0
11282 H 25.705267 12.917756 3.95956 H 0.0 **** 0.0
11283 H 26.173537 12.622984 2.423161 H 0.0 **** 0.0
11284 O 42.817282 9.517638 7.654252 O 0.0 **** 0.0
11285 H 41.961214 9.997206 7.847191 H 0.0 **** 0.0
11286 H 42.743192 8.567949 7.958661 H 0.0 **** 0.0
11287 O 7.082524 36.092123 34.251158 O 0.0 **** 0.0
11288 H 6.107361 35.906086 34.371618 H 0.0 **** 0.0
11289 H 7.551663 35.250719 33.982809 H 0.0 **** 0.0
11290 O 43.096878 39.492027 28.601414 O 0.0 **** 0.0
11291 H 43.122477 39.651599 29.5883 H 0.0 **** 0.0
11292 H 42.859822 38.536778 28.42431 H 0.0 **** 0.0
11293 O 40.262111 11.757965 24.6131 O 0.0 **** 0.0
11294 H 41.088606 12.09155 24.15957 H 0.0 **** 0.0
11295 H 39.824382 12.511122 25.104233 H 0.0 **** 0.0
11296 O 26.279484 47.231298 34.647915 O 0.0 **** 0.0
11297 H 26.91631 48.00224 34.635142 H 0.0 **** 0.0
11298 H 26.794201 46.374183 34.669899 H 0.0 **** 0.0
11299 O 44.942931 3.589235 47.026951 O 0.0 **** 0.0
11300 H 44.592557 3.453087 47.953647 H 0.0 **** 0.0
11301 H 45.169413 4.554265 46.894717 H 0.0 **** 0.0
11302 O 42.653873 1.94147 3.063658 O 0.0 **** 0.0
11303 H 42.09306 2.109931 2.252996 H 0.0 **** 0.0
11304 H 42.203699 2.331056 3.867168 H 0.0 **** 0.0
11305 O 35.860946 37.29767 41.367333 O 0.0 **** 0.0
11306 H 35.395811 36.827251 42.117278 H 0.0 **** 0.0
11307 H 36.557674 36.695545 40.977358 H 0.0 **** 0.0
11308 O 23.335219 8.499673 46.73623 O 0.0 **** 0.0
11309 H 22.492632 8.984824 46.502266 H 0.0 **** 0.0
11310 H 23.124422 7.542583 46.935246 H 0.0 **** 0.0
11311 O 8.621951 22.710149 3.456233 O 0.0 **** 0.0
11312 H 8.525841 23.412911 2.751285 H 0.0 **** 0.0
11313 H 8.991846 23.121947 4.289097 H 0.0 **** 0.0
11314 O 41.671906 19.689531 45.82065 O 0.0 **** 0.0
11315 H 41.25623 18.861956 45.443296 H 0.0 **** 0.0
11316 H 41.03926 20.457099 45.717397 H 0.0 **** 0.0
11317 O 0.50224 28.330853 4.688853 O 0.0 **** 0.0
11318 H 1.145425 29.095316 4.644457 H 0.0 **** 0.0
11319 H -0.0 28.267362 3.826422 H 0.0 **** 0.0
11320 O 34.318886 29.623099 30.009492 O 0.0 **** 0.0
11321 H 33.716382 30.072333 29.349765 H 0.0 **** 0.0
11322 H 34.831781 28.896839 29.551727 H 0.0 **** 0.0
11323 O 11.648485 4.962887 15.937779 O 0.0 **** 0.0
11324 H 11.014199 5.736003 15.931749 H 0.0 **** 0.0
11325 H 11.130926 4.107217 15.942804 H 0.0 **** 0.0
11326 O 25.307774 32.172341 24.530415 O 0.0 **** 0.0
11327 H 24.728647 32.070076 25.339252 H 0.0 **** 0.0
11328 H 25.904906 32.966113 24.646271 H 0.0 **** 0.0
11329 O 9.808339 22.336206 36.504812 O 0.0 **** 0.0
11330 H 8.858335 22.146853 36.753207 H 0.0 **** 0.0
11331 H 9.964666 22.06579 35.554812 H 0.0 **** 0.0
11332 O 26.462651 16.675124 17.372411 O 0.0 **** 0.0
11333 H 26.841669 17.489652 17.811674 H 0.0 **** 0.0
11334 H 27.126708 16.308344 16.720825 H 0.0 **** 0.0
11335 O 26.979243 28.706856 7.611207 O 0.0 **** 0.0
11336 H 27.323693 29.410137 6.989264 H 0.0 **** 0.0
11337 H 27.075179 27.807913 7.183702 H 0.0 **** 0.0
11338 O 0.919158 38.784755 46.79385 O 0.0 **** 0.0
11339 H 1.187863 39.724268 47.006396 H 0.0 **** 0.0
11340 H 0.863041 38.670462 45.801958 H 0.0 **** 0.0
11341 O 37.206837 15.335607 22.823016 O 0.0 **** 0.0
11342 H 37.670868 15.188758 23.696614 H 0.0 **** 0.0
11343 H 36.717933 14.503412 22.561315 H 0.0 **** 0.0
11344 O 31.921803 29.97958 11.351805 O 0.0 **** 0.0
11345 H 31.639756 29.131857 10.902495 H 0.0 **** 0.0
11346 H 32.590894 29.771887 12.065417 H 0.0 **** 0.0
11347 O 38.169901 46.043491 32.133991 O 0.0 **** 0.0
11348 H 37.590232 46.809184 31.855135 H 0.0 **** 0.0
11349 H 38.829154 45.843336 31.409155 H 0.0 **** 0.0
11350 O 42.108764 3.818426 20.567684 O 0.0 **** 0.0
11351 H 42.887397 4.436106 20.678436 H 0.0 **** 0.0
11352 H 42.425154 2.871077 20.617567 H 0.0 **** 0.0
11353 O 14.853686 36.005303 15.899134 O 0.0 **** 0.0
11354 H 14.345489 35.149295 15.804016 H 0.0 **** 0.0
11355 H 14.44235 36.558336 16.623717 H 0.0 **** 0.0
11356 O 26.62211 28.135463 4.623398 O 0.0 **** 0.0
11357 H 26.853977 27.171414 4.493358 H 0.0 **** 0.0
11358 H 25.812086 28.20785 5.205364 H 0.0 **** 0.0
11359 O 6.580678 27.912417 12.951201 O 0.0 **** 0.0
11360 H 7.185478 28.689051 13.127605 H 0.0 **** 0.0
11361 H 5.946385 28.144727 12.213795 H 0.0 **** 0.0
11362 O 24.214822 23.454213 34.831331 O 0.0 **** 0.0
11363 H 23.626411 23.325377 35.629603 H 0.0 **** 0.0
11364 H 23.756825 24.05116 34.172578 H 0.0 **** 0.0
11365 O 43.981346 41.128657 15.090044 O 0.0 **** 0.0
11366 H 44.927126 41.178409 15.411115 H 0.0 **** 0.0
11367 H 43.89502 41.629383 14.228717 H 0.0 **** 0.0
11368 O 23.061788 6.735074 44.619098 O 0.0 **** 0.0
11369 H 22.087764 6.957735 44.577107 H 0.0 **** 0.0
11370 H 23.17345 5.747304 44.728209 H 0.0 **** 0.0
11371 O 38.386036 26.235591 36.27812 O 0.0 **** 0.0
11372 H 38.414252 25.373837 35.771515 H 0.0 **** 0.0
11373 H 37.434145 26.498821 36.43521 H 0.0 **** 0.0
11374 O 22.180317 15.839101 32.365347 O 0.0 **** 0.0
11375 H 22.306011 15.392563 33.251274 H 0.0 **** 0.0
11376 H 21.63016 15.252115 31.771346 H 0.0 **** 0.0
11377 O 46.270721 21.38804 15.260157 O 0.0 **** 0.0
11378 H 46.781913 22.069269 14.736064 H 0.0 **** 0.0
11379 H 46.350154 21.590191 16.236317 H 0.0 **** 0.0
11380 O 35.441189 21.287807 30.855365 O 0.0 **** 0.0
11381 H 35.447415 20.288159 30.828402 H 0.0 **** 0.0
11382 H 36.381757 21.627345 30.844931 H 0.0 **** 0.0
11383 O 17.027381 19.510177 1.063347 O 0.0 **** 0.0
11384 H 17.557683 19.514586 0.215513 H 0.0 **** 0.0
11385 H 17.649338 19.54537 1.845648 H 0.0 **** 0.0
11386 O 4.738434 43.016421 5.859966 O 0.0 **** 0.0
11387 H 5.557063 42.44212 5.869335 H 0.0 **** 0.0
11388 H 4.966124 43.926937 6.20519 H 0.0 **** 0.0
11389 O 29.296026 4.60979 47.983377 O 0.0 **** 0.0
11390 H 30.246995 4.918596 48.002375 H 0.0 **** 0.0
11391 H 28.690136 5.401312 47.903052 H 0.0 **** 0.0
11392 O 18.53883 5.865931 47.986656 O 0.0 **** 0.0
11393 H 18.611984 4.868589 47.982285 H 0.0 **** 0.0
11394 H 19.454558 6.267169 48.009296 H 0.0 **** 0.0
11395 O 43.972717 31.347598 36.297641 O 0.0 **** 0.0
11396 H 43.760506 32.223413 36.731204 H 0.0 **** 0.0
11397 H 44.857548 31.018261 36.627299 H 0.0 **** 0.0
11398 O 3.621972 35.370419 34.441093 O 0.0 **** 0.0
11399 H 4.083154 35.788585 35.223724 H 0.0 **** 0.0
11400 H 4.252302 34.748834 33.975927 H 0.0 **** 0.0
11401 O 47.060886 25.3711 27.37978 O 0.0 **** 0.0
11402 H 46.416521 25.580394 26.644217 H 0.0 **** 0.0
11403 H 47.438474 24.455464 27.241572 H 0.0 **** 0.0
11404 O 22.937337 1.487295 30.020665 O 0.0 **** 0.0
11405 H 23.416246 0.72661 30.45892 H 0.0 **** 0.0
11406 H 23.204158 2.345779 30.458701 H 0.0 **** 0.0
11407 O 46.554606 40.050507 4.364236 O 0.0 **** 0.0
11408 H 45.654588 40.388377 4.088784 H 0.0 **** 0.0
11409 H 47.185125 40.112892 3.590532 H 0.0 **** 0.0
11410 O 14.428371 39.200953 24.091664 O 0.0 **** 0.0
11411 H 13.616005 38.657018 24.302041 H 0.0 **** 0.0
11412 H 15.092797 38.633311 23.60547 H 0.0 **** 0.0
11413 O 7.689648 36.803588 29.994961 O 0.0 **** 0.0
11414 H 8.379254 37.340645 29.509083 H 0.0 **** 0.0
11415 H 7.859859 35.829504 29.845789 H 0.0 **** 0.0
11416 O 12.659147 12.239845 21.214231 O 0.0 **** 0.0
11417 H 13.563656 12.65908 21.135694 H 0.0 **** 0.0
11418 H 12.757395 11.247865 21.29414 H 0.0 **** 0.0
11419 O 20.184151 19.545523 20.717483 O 0.0 **** 0.0
11420 H 20.214637 20.132972 19.908757 H 0.0 **** 0.0
11421 H 19.858756 20.074307 21.501427 H 0.0 **** 0.0
11422 O 13.155238 0.532135 41.491128 O 0.0 **** 0.0
11423 H 12.319814 -0.000304 41.354606 H 0.0 **** 0.0
11424 H 13.428086 0.483601 42.451993 H 0.0 **** 0.0
11425 O 8.391071 31.346053 39.388256 O 0.0 **** 0.0
11426 H 9.383361 31.268603 39.485339 H 0.0 **** 0.0
11427 H 8.144363 31.276729 38.421617 H 0.0 **** 0.0
11428 O 20.101667 38.074404 21.510445 O 0.0 **** 0.0
11429 H 20.843607 37.662462 22.039493 H 0.0 **** 0.0
11430 H 20.465739 38.43779 20.652853 H 0.0 **** 0.0
11431 O 43.111184 35.445998 37.063075 O 0.0 **** 0.0
11432 H 43.566606 35.803618 37.878404 H 0.0 **** 0.0
11433 H 43.117098 34.446332 37.089476 H 0.0 **** 0.0
11434 O 5.383088 13.14265 20.945572 O 0.0 **** 0.0
11435 H 4.676338 12.472893 21.173589 H 0.0 **** 0.0
11436 H 5.051168 13.742712 20.217686 H 0.0 **** 0.0
11437 O 16.480516 31.815176 29.921389 O 0.0 **** 0.0
11438 H 16.790334 30.974849 30.366279 H 0.0 **** 0.0
11439 H 16.530891 32.574101 30.570664 H 0.0 **** 0.0
11440 O 36.749289 19.459854 10.395649 O 0.0 **** 0.0
11441 H 35.775221 19.285424 10.539972 H 0.0 **** 0.0
11442 H 36.898367 20.441852 10.279379 H 0.0 **** 0.0
11443 O 5.422341 33.68176 25.745562 O 0.0 **** 0.0
11444 H 4.635891 33.208815 26.142906 H 0.0 **** 0.0
11445 H 5.116657 34.52788 25.308868 H 0.0 **** 0.0
11446 O 39.846213 5.418834 20.597884 O 0.0 **** 0.0
11447 H 38.95903 5.865476 20.481786 H 0.0 **** 0.0
11448 H 39.858008 4.562048 20.082286 H 0.0 **** 0.0
11449 O 9.132201 27.113466 13.827548 O 0.0 **** 0.0
11450 H 10.065611 26.762479 13.752595 H 0.0 **** 0.0
11451 H 9.159369 28.096522 14.009002 H 0.0 **** 0.0
11452 O 46.473602 33.008757 25.619393 O 0.0 **** 0.0
11453 H 47.380827 32.595276 25.697114 H 0.0 **** 0.0
11454 H 46.567717 33.981003 25.405047 H 0.0 **** 0.0
11455 O 7.989095 0.12418 9.923913 O 0.0 **** 0.0
11456 H 8.980342 -3.2e-05 9.969333 H 0.0 **** 0.0
11457 H 7.766524 0.761323 9.18596 H 0.0 **** 0.0
11458 O 36.852609 18.689985 30.271464 O 0.0 **** 0.0
11459 H 36.923955 17.806352 30.734244 H 0.0 **** 0.0
11460 H 37.654709 19.246051 30.489386 H 0.0 **** 0.0
11461 O 26.260568 10.723061 30.341271 O 0.0 **** 0.0
11462 H 25.400963 10.31817 30.65305 H 0.0 **** 0.0
11463 H 27.027561 10.175534 30.675933 H 0.0 **** 0.0
11464 O 36.215863 40.762406 18.543072 O 0.0 **** 0.0
11465 H 35.816931 40.345673 17.726219 H 0.0 **** 0.0
11466 H 37.199737 40.881809 18.409662 H 0.0 **** 0.0
11467 O 45.015696 10.148149 22.909975 O 0.0 **** 0.0
11468 H 45.098236 10.916393 23.544839 H 0.0 **** 0.0
11469 H 45.866254 9.622209 22.910862 H 0.0 **** 0.0
11470 O 15.860241 31.341523 13.153523 O 0.0 **** 0.0
11471 H 14.886321 31.240137 12.950386 H 0.0 **** 0.0
11472 H 16.039292 31.035378 14.088552 H 0.0 **** 0.0
11473 O 30.616471 43.703482 15.906972 O 0.0 **** 0.0
11474 H 29.726181 43.947101 16.291805 H 0.0 **** 0.0
11475 H 30.504776 43.441577 14.948331 H 0.0 **** 0.0
11476 O 38.410474 10.233091 20.440918 O 0.0 **** 0.0
11477 H 37.446749 9.966406 20.454201 H 0.0 **** 0.0
11478 H 38.480084 11.230613 20.427977 H 0.0 **** 0.0
11479 O 30.882477 11.023401 31.67806 O 0.0 **** 0.0
11480 H 31.476313 10.294738 31.336778 H 0.0 **** 0.0
11481 H 31.366266 11.89733 31.630512 H 0.0 **** 0.0
11482 O 11.744389 3.110389 46.521101 O 0.0 **** 0.0
11483 H 10.781167 2.862191 46.624373 H 0.0 **** 0.0
11484 H 11.847815 4.098663 46.633702 H 0.0 **** 0.0
11485 O 31.001455 31.966341 20.445902 O 0.0 **** 0.0
11486 H 31.880316 31.892312 19.974534 H 0.0 **** 0.0
11487 H 30.842939 32.918337 20.70789 H 0.0 **** 0.0
11488 O 11.649405 16.815987 8.537979 O 0.0 **** 0.0
11489 H 11.881383 15.949071 8.096724 H 0.0 **** 0.0
11490 H 10.794243 16.712987 9.046065 H 0.0 **** 0.0
11491 O 12.504189 46.919241 47.968438 O 0.0 **** 0.0
11492 H 13.442416 46.573761 47.947531 H 0.0 **** 0.0
11493 H 12.517687 47.918686 47.9999 H 0.0 **** 0.0
11494 O 28.296506 15.890334 45.486059 O 0.0 **** 0.0
11495 H 27.583981 16.430799 45.933573 H 0.0 **** 0.0
11496 H 28.04319 14.923125 45.506096 H 0.0 **** 0.0
11497 O 1.366726 16.417397 48.000857 O 0.0 **** 0.0
11498 H 0.446563 16.802791 47.931328 H 0.0 **** 0.0
11499 H 1.852302 16.556256 47.137724 H 0.0 **** 0.0
11500 O 16.599801 11.91341 16.718376 O 0.0 **** 0.0
11501 H 15.653721 12.142426 16.947607 H 0.0 **** 0.0
11502 H 16.614212 11.100566 16.136019 H 0.0 **** 0.0
11503 O 30.707122 42.208304 41.847904 O 0.0 **** 0.0
11504 H 30.507418 41.232628 41.938663 H 0.0 **** 0.0
11505 H 29.862207 42.704156 41.647125 H 0.0 **** 0.0
11506 O 8.93173 29.46907 36.740176 O 0.0 **** 0.0
11507 H 9.519191 29.862348 37.447484 H 0.0 **** 0.0
11508 H 9.491255 28.954603 36.090315 H 0.0 **** 0.0
11509 O 8.816006 14.003088 21.987297 O 0.0 **** 0.0
11510 H 7.863388 14.200823 22.218562 H 0.0 **** 0.0
11511 H 8.982785 13.020797 22.073037 H 0.0 **** 0.0
11512 O 30.214005 0.036698 6.405104 O 0.0 **** 0.0
11513 H 31.043079 0.587618 6.500954 H 0.0 **** 0.0
11514 H 29.604395 0.21474 7.177594 H 0.0 **** 0.0
11515 O 38.975131 16.113436 25.782763 O 0.0 **** 0.0
11516 H 39.882566 16.506675 25.931044 H 0.0 **** 0.0
11517 H 39.068407 15.165399 25.478482 H 0.0 **** 0.0
11518 O 31.393489 21.314231 20.894789 O 0.0 **** 0.0
11519 H 30.808626 21.965231 21.378729 H 0.0 **** 0.0
11520 H 32.267824 21.232155 21.373187 H 0.0 **** 0.0
11521 O 22.759537 5.066028 47.999397 O 0.0 **** 0.0
11522 H 22.780815 4.066223 47.999502 H 0.0 **** 0.0
11523 H 21.809795 5.379162 47.999359 H 0.0 **** 0.0
11524 O 43.459119 10.879353 0.473858 O 0.0 **** 0.0
11525 H 42.61519 11.130642 -0.000169 H 0.0 **** 0.0
11526 H 44.0413 11.686916 0.568566 H 0.0 **** 0.0
11527 O 16.419203 40.110645 5.854527 O 0.0 **** 0.0
11528 H 15.948481 40.493906 5.059798 H 0.0 **** 0.0
11529 H 17.261804 40.622634 6.021725 H 0.0 **** 0.0
11530 O 36.813802 23.895394 6.626855 O 0.0 **** 0.0
11531 H 37.154595 24.219047 7.509562 H 0.0 **** 0.0
11532 H 36.622468 22.915414 6.682477 H 0.0 **** 0.0
11533 O 27.028788 30.945015 31.37737 O 0.0 **** 0.0
11534 H 26.495878 30.835537 30.538272 H 0.0 **** 0.0
11535 H 27.521203 31.814927 31.348329 H 0.0 **** 0.0
11536 O 44.103749 3.70441 7.342542 O 0.0 **** 0.0
11537 H 45.099222 3.793056 7.37775 H 0.0 **** 0.0
11538 H 43.853433 2.73732 7.388822 H 0.0 **** 0.0
11539 O 0.917971 12.229387 14.299363 O 0.0 **** 0.0
11540 H 1.538302 12.093189 15.071828 H 0.0 **** 0.0
11541 H -0.000396 11.924387 14.551633 H 0.0 **** 0.0
11542 O 4.676926 7.358203 47.391746 O 0.0 **** 0.0
11543 H 4.458901 6.389464 47.273112 H 0.0 **** 0.0
11544 H 5.669174 7.48126 47.372665 H 0.0 **** 0.0
11545 O 12.021467 30.957122 12.96465 O 0.0 **** 0.0
11546 H 12.768834 31.02526 12.303694 H 0.0 **** 0.0
11547 H 12.275787 30.318051 13.690579 H 0.0 **** 0.0
11548 O 0.087907 36.808427 16.676863 O 0.0 **** 0.0
11549 H 0.46072 37.698207 16.940237 H 0.0 **** 0.0
11550 H -0.000409 36.230673 17.488321 H 0.0 **** 0.0
11551 O 35.192015 8.903358 11.709354 O 0.0 **** 0.0
11552 H 34.5343 8.153512 11.637209 H 0.0 **** 0.0
11553 H 35.942832 8.751101 11.066583 H 0.0 **** 0.0
11554 O 28.303566 13.301905 18.26975 O 0.0 **** 0.0
11555 H 29.126908 12.989051 17.796154 H 0.0 **** 0.0
11556 H 28.543105 13.597688 19.194519 H 0.0 **** 0.0
11557 O 32.371332 23.37199 44.740044 O 0.0 **** 0.0
11558 H 33.120874 22.958005 44.223452 H 0.0 **** 0.0
11559 H 31.525603 22.869258 44.560976 H 0.0 **** 0.0
11560 O 41.133511 41.631619 39.150644 O 0.0 **** 0.0
11561 H 40.927076 42.609438 39.114345 H 0.0 **** 0.0
11562 H 41.548131 41.346233 38.286521 H 0.0 **** 0.0
11563 O 15.486992 28.217732 2.359094 O 0.0 **** 0.0
11564 H 15.966708 27.937524 3.19061 H 0.0 **** 0.0
11565 H 14.788492 27.538896 2.132501 H 0.0 **** 0.0
11566 O 29.278517 21.663145 23.531116 O 0.0 **** 0.0
11567 H 29.95088 22.383781 23.361779 H 0.0 **** 0.0
11568 H 29.733675 20.772802 23.517531 H 0.0 **** 0.0
11569 O 25.571894 21.906728 13.338097 O 0.0 **** 0.0
11570 H 26.049932 21.669129 14.183727 H 0.0 **** 0.0
11571 H 25.291264 22.865973 13.372137 H 0.0 **** 0.0
11572 O 3.136933 16.115146 30.634417 O 0.0 **** 0.0
11573 H 3.972015 15.56529 30.615481 H 0.0 **** 0.0
11574 H 2.810519 16.257718 29.699971 H 0.0 **** 0.0
11575 O 47.278346 6.557569 18.806193 O 0.0 **** 0.0
11576 H 46.820536 5.668487 18.803422 H 0.0 **** 0.0
11577 H 47.861897 6.629423 19.615123 H 0.0 **** 0.0
11578 O 36.936666 1.208449 32.406908 O 0.0 **** 0.0
11579 H 37.569232 1.969103 32.552953 H 0.0 **** 0.0
11580 H 36.045926 1.565148 32.125109 H 0.0 **** 0.0
11581 O 0.238119 23.436514 38.308635 O 0.0 **** 0.0
11582 H 0.848705 22.658979 38.45926 H 0.0 **** 0.0
11583 H 0.609146 24.245018 38.765496 H 0.0 **** 0.0
11584 O 2.28855 35.802066 45.04362 O 0.0 **** 0.0
11585 H 1.648052 36.438484 45.473501 H 0.0 **** 0.0
11586 H 2.67999 36.224546 44.226093 H 0.0 **** 0.0
11587 O 30.698496 29.632309 36.060025 O 0.0 **** 0.0
11588 H 30.727836 30.131103 35.193765 H 0.0 **** 0.0
11589 H 31.535349 29.812661 36.576952 H 0.0 **** 0.0
11590 O 14.565931 39.28074 33.414628 O 0.0 **** 0.0
11591 H 13.579206 39.43225 33.355618 H 0.0 **** 0.0
11592 H 14.853472 39.326275 34.371346 H 0.0 **** 0.0
11593 O 38.124273 6.175817 33.313071 O 0.0 **** 0.0
11594 H 37.209805 6.046935 33.696738 H 0.0 **** 0.0
11595 H 38.425037 5.327907 32.876434 H 0.0 **** 0.0
11596 O 0.986943 41.340253 36.21409 O 0.0 **** 0.0
11597 H 1.344475 42.194081 35.835655 H 0.0 **** 0.0
11598 H -0.003086 41.416961 36.332497 H 0.0 **** 0.0
11599 O 2.58686 36.259725 12.617157 O 0.0 **** 0.0
11600 H 2.821002 36.414703 13.57696 H 0.0 **** 0.0
11601 H 1.727558 36.724923 12.404428 H 0.0 **** 0.0
11602 O 16.253262 16.760531 42.119098 O 0.0 **** 0.0
11603 H 16.05711 15.833929 42.440025 H 0.0 **** 0.0
11604 H 15.739659 17.419346 42.668859 H 0.0 **** 0.0
11605 O 25.045406 28.90026 31.450142 O 0.0 **** 0.0
11606 H 26.045212 28.879207 31.447479 H 0.0 **** 0.0
11607 H 24.732071 29.849921 31.4554 H 0.0 **** 0.0
11608 O 34.525492 17.727588 7.050007 O 0.0 **** 0.0
11609 H 34.322239 16.874786 6.568882 H 0.0 **** 0.0
11610 H 34.822346 18.419166 6.391478 H 0.0 **** 0.0
11611 O 39.9354 32.531223 44.85033 O 0.0 **** 0.0
11612 H 38.948344 32.678031 44.915383 H 0.0 **** 0.0
11613 H 40.124463 31.550054 44.810014 H 0.0 **** 0.0
11614 O 1.886861 10.452457 5.302808 O 0.0 **** 0.0
11615 H 2.301304 10.769238 6.156007 H 0.0 **** 0.0
11616 H 0.901884 10.338616 5.432904 H 0.0 **** 0.0
11617 O 36.34209 4.247338 36.154213 O 0.0 **** 0.0
11618 H 37.010713 4.91985 35.836829 H 0.0 **** 0.0
11619 H 35.461658 4.418347 35.71188 H 0.0 **** 0.0
11620 O 9.941417 34.018238 16.488289 O 0.0 **** 0.0
11621 H 10.401974 34.338705 17.316088 H 0.0 **** 0.0
11622 H 10.04968 34.697577 15.762451 H 0.0 **** 0.0
11623 O 27.606677 25.15961 38.024417 O 0.0 **** 0.0
11624 H 27.774424 26.093288 38.340912 H 0.0 **** 0.0
11625 H 27.034139 24.680077 38.689482 H 0.0 **** 0.0
11626 O 31.098697 7.69481 30.93002 O 0.0 **** 0.0
11627 H 31.647393 7.726544 31.765478 H 0.0 **** 0.0
11628 H 30.144095 7.511566 31.165005 H 0.0 **** 0.0
11629 O 38.813174 2.933487 7.332477 O 0.0 **** 0.0
11630 H 39.541469 2.417167 6.881852 H 0.0 **** 0.0
11631 H 38.042723 2.325302 7.523731 H 0.0 **** 0.0
11632 O 42.253791 39.794767 19.376649 O 0.0 **** 0.0
11633 H 43.236901 39.97627 19.351856 H 0.0 **** 0.0
11634 H 42.098572 38.809953 19.454823 H 0.0 **** 0.0
11635 O 2.750476 20.86506 39.642736 O 0.0 **** 0.0
11636 H 3.324174 20.172756 40.080514 H 0.0 **** 0.0
11637 H 3.149083 21.119608 38.761612 H 0.0 **** 0.0
11638 O 0.513303 4.298015 13.270139 O 0.0 **** 0.0
11639 H -0.000105 3.880672 14.020006 H 0.0 **** 0.0
11640 H 0.225172 5.249015 13.157697 H 0.0 **** 0.0
11641 O 3.469753 26.779081 10.879933 O 0.0 **** 0.0
11642 H 3.600111 27.638264 11.37478 H 0.0 **** 0.0
11643 H 4.279358 26.588033 10.324863 H 0.0 **** 0.0
11644 O 37.212891 22.535081 34.83909 O 0.0 **** 0.0
11645 H 37.985059 22.012958 34.476865 H 0.0 **** 0.0
11646 H 37.518646 23.454883 35.085141 H 0.0 **** 0.0
11647 O 11.053893 0.235751 32.396281 O 0.0 **** 0.0
11648 H 10.086155 -0.003522 32.316948 H 0.0 **** 0.0
11649 H 11.380366 0.004362 33.312762 H 0.0 **** 0.0
11650 O 1.138739 41.453268 23.601361 O 0.0 **** 0.0
11651 H 1.625905 42.278457 23.88736 H 0.0 **** 0.0
11652 H 1.737862 40.894415 23.027951 H 0.0 **** 0.0
11653 O 3.980264 4.703945 6.70664 O 0.0 **** 0.0
11654 H 4.475139 5.28131 6.057171 H 0.0 **** 0.0
11655 H 4.255756 3.750685 6.582288 H 0.0 **** 0.0
11656 O 40.517549 28.344181 23.496434 O 0.0 **** 0.0
11657 H 39.788375 28.622367 22.871149 H 0.0 **** 0.0
11658 H 41.355142 28.174374 22.97714 H 0.0 **** 0.0
11659 O 19.098043 21.919286 47.48454 O 0.0 **** 0.0
11660 H 18.564283 21.248676 47.999755 H 0.0 **** 0.0
11661 H 19.995991 22.029053 47.910807 H 0.0 **** 0.0
11662 O 18.59525 0.19048 17.189811 O 0.0 **** 0.0
11663 H 17.598057 0.136941 17.136872 H 0.0 **** 0.0
11664 H 18.987471 9e-05 16.289823 H 0.0 **** 0.0
11665 O 37.851068 16.675948 -0.005747 O 0.0 **** 0.0
11666 H 36.972038 16.201848 0.045233 H 0.0 **** 0.0
11667 H 38.592496 16.018939 0.130949 H 0.0 **** 0.0
11668 O 9.338121 33.441604 14.102347 O 0.0 **** 0.0
11669 H 8.436166 33.178972 13.75947 H 0.0 **** 0.0
11670 H 9.889233 33.801088 13.349281 H 0.0 **** 0.0
11671 O 1.868721 40.077675 39.473632 O 0.0 **** 0.0
11672 H 1.014482 40.586594 39.580117 H 0.0 **** 0.0
11673 H 2.630815 40.719662 39.389206 H 0.0 **** 0.0
11674 O 29.622875 33.137127 13.136994 O 0.0 **** 0.0
11675 H 29.071222 33.935803 12.896456 H 0.0 **** 0.0
11676 H 30.583546 33.405259 13.209646 H 0.0 **** 0.0
11677 O 36.480975 2.509219 12.395283 O 0.0 **** 0.0
11678 H 36.806188 3.410021 12.107436 H 0.0 **** 0.0
11679 H 37.20712 1.834603 12.262356 H 0.0 **** 0.0
11680 O 24.980123 9.51331 35.532111 O 0.0 **** 0.0
11681 H 25.755118 9.930075 36.007246 H 0.0 **** 0.0
11682 H 25.143831 9.533673 34.54578 H 0.0 **** 0.0
11683 O 46.980274 13.232792 31.324825 O 0.0 **** 0.0
11684 H 47.514176 14.020363 31.017021 H 0.0 **** 0.0
11685 H 46.627687 12.738161 30.530416 H 0.0 **** 0.0
11686 O 6.0103 31.271722 39.925151 O 0.0 **** 0.0
11687 H 6.182106 30.412572 39.443066 H 0.0 **** 0.0
11688 H 6.303208 32.038643 39.354099 H 0.0 **** 0.0
11689 O 5.281195 4.832914 43.05202 O 0.0 **** 0.0
11690 H 4.970534 5.016807 43.984617 H 0.0 **** 0.0
11691 H 4.699021 5.323913 42.403903 H 0.0 **** 0.0
11692 O 5.768622 11.389601 46.199104 O 0.0 **** 0.0
11693 H 5.707231 11.332466 47.195613 H 0.0 **** 0.0
11694 H 5.27974 10.618903 45.790349 H 0.0 **** 0.0
11695 O 15.969188 24.870059 3.582861 O 0.0 **** 0.0
11696 H 15.792562 25.802559 3.897993 H 0.0 **** 0.0
11697 H 16.95609 24.716311 3.533361 H 0.0 **** 0.0
11698 O 6.60804 -0.001506 3.515646 O 0.0 **** 0.0
11699 H 5.803719 0.170379 2.946799 H 0.0 **** 0.0
11700 H 6.3524 0.057008 4.480679 H 0.0 **** 0.0
11701 O 8.064984 21.658782 18.282469 O 0.0 **** 0.0
11702 H 7.122329 21.584492 17.956976 H 0.0 **** 0.0
11703 H 8.218675 20.99352 19.013131 H 0.0 **** 0.0
11704 O 29.241859 30.6294 6.320505 O 0.0 **** 0.0
11705 H 29.918003 29.90189 6.437219 H 0.0 **** 0.0
11706 H 29.69543 31.518648 6.380279 H 0.0 **** 0.0
11707 O 43.876262 12.400313 47.052554 O 0.0 **** 0.0
11708 H 44.249309 13.234576 46.646471 H 0.0 **** 0.0
11709 H 43.260281 12.64134 47.802579 H 0.0 **** 0.0
11710 O 44.759342 35.585578 0.466263 O 0.0 **** 0.0
11711 H 45.743487 35.697157 0.328161 H 0.0 **** 0.0
11712 H 44.329928 36.485169 0.54628 H 0.0 **** 0.0
11713 O 9.874836 27.226031 16.320559 O 0.0 **** 0.0
11714 H 10.644011 26.76818 15.874684 H 0.0 **** 0.0
11715 H 10.157558 28.13734 16.61997 H 0.0 **** 0.0
11716 O 7.253483 14.590797 3.183494 O 0.0 **** 0.0
11717 H 6.254351 14.555112 3.160572 H 0.0 **** 0.0
11718 H 7.553244 15.544776 3.172094 H 0.0 **** 0.0
11719 O 10.33411 44.086795 6.557385 O 0.0 **** 0.0
11720 H 11.08389 44.404853 5.977099 H 0.0 **** 0.0
11721 H 9.732139 44.855117 6.775046 H 0.0 **** 0.0
11722 O 16.152986 10.786409 1.522378 O 0.0 **** 0.0
11723 H 15.614792 9.948074 1.609582 H 0.0 **** 0.0
11724 H 17.121088 10.576755 1.659809 H 0.0 **** 0.0
11725 O 3.174095 27.831682 43.431872 O 0.0 **** 0.0
11726 H 3.95634 27.497249 43.957525 H 0.0 **** 0.0
11727 H 3.366791 28.7545 43.098199 H 0.0 **** 0.0
11728 O 18.800664 9.490025 5.116985 O 0.0 **** 0.0
11729 H 19.043687 10.458684 5.168986 H 0.0 **** 0.0
11730 H 18.574825 9.253352 4.171974 H 0.0 **** 0.0
11731 O 46.511075 10.923241 1.108568 O 0.0 **** 0.0
11732 H 45.889694 10.500687 0.448722 H 0.0 **** 0.0
11733 H 45.983969 11.466221 1.762322 H 0.0 **** 0.0
11734 O 7.89589 4.233895 25.618046 O 0.0 **** 0.0
11735 H 7.35377 4.839302 26.200842 H 0.0 **** 0.0
11736 H 7.358852 3.975565 24.814977 H 0.0 **** 0.0
11737 O 14.280682 28.139721 11.097307 O 0.0 **** 0.0
11738 H 13.598412 27.571316 10.63743 H 0.0 **** 0.0
11739 H 15.170629 28.012161 10.659373 H 0.0 **** 0.0
11740 O 31.518978 19.531707 14.66471 O 0.0 **** 0.0
11741 H 31.788853 20.415063 14.281417 H 0.0 **** 0.0
11742 H 30.824356 19.672735 15.37017 H 0.0 **** 0.0
11743 O 3.944049 18.055056 2.13904 O 0.0 **** 0.0
11744 H 3.629692 17.750251 3.038115 H 0.0 **** 0.0
11745 H 4.657962 18.746124 2.252248 H 0.0 **** 0.0
11746 O 20.531204 13.575951 24.821352 O 0.0 **** 0.0
11747 H 19.655077 13.094055 24.836852 H 0.0 **** 0.0
11748 H 20.379751 14.535239 24.582832 H 0.0 **** 0.0
11749 O 9.94132 36.877379 32.147926 O 0.0 **** 0.0
11750 H 9.128738 37.450122 32.256265 H 0.0 **** 0.0
11751 H 10.749816 37.386762 32.442758 H 0.0 **** 0.0
11752 O 41.507463 41.58338 6.820342 O 0.0 **** 0.0
11753 H 42.377901 41.268357 7.198709 H 0.0 **** 0.0
11754 H 40.846018 41.70302 7.560773 H 0.0 **** 0.0
11755 O 39.870633 3.427924 27.67118 O 0.0 **** 0.0
11756 H 39.997928 4.050555 28.443314 H 0.0 **** 0.0
11757 H 38.92486 3.483098 27.350974 H 0.0 **** 0.0
11758 O 4.060024 43.184066 47.335753 O 0.0 **** 0.0
11759 H 4.382818 42.31193 47.703509 H 0.0 **** 0.0
11760 H 4.511301 43.935944 47.816473 H 0.0 **** 0.0
11761 O 2.048021 5.896902 28.291702 O 0.0 **** 0.0
11762 H 1.79277 6.285059 27.406127 H 0.0 **** 0.0
11763 H 2.595315 6.56085 28.801315 H 0.0 **** 0.0
11764 O 47.695836 40.468788 13.808944 O 0.0 **** 0.0
11765 H 48.000336 39.543347 13.583327 H 0.0 **** 0.0
11766 H 47.33801 40.911619 12.986799 H 0.0 **** 0.0
11767 O 42.193903 4.181732 10.445522 O 0.0 **** 0.0
11768 H 42.538659 4.967987 10.958367 H 0.0 **** 0.0
11769 H 42.947776 3.554071 10.251151 H 0.0 **** 0.0
11770 O 38.946938 16.442081 28.803373 O 0.0 **** 0.0
11771 H 37.994642 16.1699 28.665123 H 0.0 **** 0.0
11772 H 39.268911 16.09303 29.683463 H 0.0 **** 0.0
11773 O 23.789584 10.679396 19.737587 O 0.0 **** 0.0
11774 H 23.394923 11.051486 20.57774 H 0.0 **** 0.0
11775 H 24.513905 10.029821 19.968831 H 0.0 **** 0.0
11776 O 41.376723 47.440298 0.901028 O 0.0 **** 0.0
11777 H 42.017537 46.678123 0.993274 H 0.0 **** 0.0
11778 H 40.439509 47.092037 0.921208 H 0.0 **** 0.0
11779 O 47.851271 44.586368 44.861768 O 0.0 **** 0.0
11780 H 48.00038 43.60892 44.712018 H 0.0 **** 0.0
11781 H 48.000359 44.802238 45.826774 H 0.0 **** 0.0
11782 O 15.563142 8.604764 26.143621 O 0.0 **** 0.0
11783 H 16.261859 9.297094 26.323997 H 0.0 **** 0.0
11784 H 15.436468 8.038937 26.958395 H 0.0 **** 0.0
11785 O 35.416922 31.559506 33.71083 O 0.0 **** 0.0
11786 H 35.332973 30.563304 33.686395 H 0.0 **** 0.0
11787 H 36.290576 31.810206 34.127892 H 0.0 **** 0.0
11788 O 2.065979 17.140351 8.352316 O 0.0 **** 0.0
11789 H 2.197308 16.157909 8.21956 H 0.0 **** 0.0
11790 H 2.790333 17.496655 8.942589 H 0.0 **** 0.0
11791 O 3.742335 23.925965 5.101203 O 0.0 **** 0.0
11792 H 4.444166 24.37555 4.548599 H 0.0 **** 0.0
11793 H 4.165893 23.517046 5.909564 H 0.0 **** 0.0
11794 O 45.04183 23.88032 28.19142 O 0.0 **** 0.0
11795 H 44.069153 23.773965 27.984896 H 0.0 **** 0.0
11796 H 45.577275 23.289975 27.587388 H 0.0 **** 0.0
11797 O 38.384985 42.491144 46.006279 O 0.0 **** 0.0
11798 H 39.34762 42.654376 46.222503 H 0.0 **** 0.0
11799 H 37.919149 43.366682 45.877859 H 0.0 **** 0.0
11800 O 19.052931 0.839841 44.415423 O 0.0 **** 0.0
11801 H 18.389386 1.161697 45.090834 H 0.0 **** 0.0
11802 H 18.720926 -0.006676 43.999195 H 0.0 **** 0.0
11803 O 35.291992 8.576049 44.451159 O 0.0 **** 0.0
11804 H 35.123511 7.823101 43.814962 H 0.0 **** 0.0
11805 H 34.438904 8.819649 44.912639 H 0.0 **** 0.0
11806 O 16.589271 42.820178 46.171156 O 0.0 **** 0.0
11807 H 16.452378 43.700067 46.626259 H 0.0 **** 0.0
11808 H 15.702499 42.387189 46.009232 H 0.0 **** 0.0
11809 O 28.181236 42.813652 24.459445 O 0.0 **** 0.0
11810 H 28.141055 42.149924 25.206382 H 0.0 **** 0.0
11811 H 28.237177 42.329622 23.586148 H 0.0 **** 0.0
11812 O 9.494892 13.921656 8.684806 O 0.0 **** 0.0
11813 H 10.195503 14.634733 8.65781 H 0.0 **** 0.0
11814 H 9.93221 13.028622 8.79113 H 0.0 **** 0.0
11815 O 18.183362 16.639301 13.340368 O 0.0 **** 0.0
11816 H 17.920378 16.275748 14.234086 H 0.0 **** 0.0
11817 H 17.365897 16.940858 12.849576 H 0.0 **** 0.0
11818 O 13.283396 35.307869 27.265073 O 0.0 **** 0.0
11819 H 12.827623 35.980862 27.847667 H 0.0 **** 0.0
11820 H 14.238328 35.573765 27.132913 H 0.0 **** 0.0
11821 O 35.843514 8.83472 15.885273 O 0.0 **** 0.0
11822 H 36.66813 9.40017 15.903636 H 0.0 **** 0.0
11823 H 35.038432 9.41546 16.006292 H 0.0 **** 0.0
11824 O 21.819404 28.515062 0.060158 O 0.0 **** 0.0
11825 H 22.182497 27.585167 0.119505 H 0.0 **** 0.0
11826 H 20.821834 28.480073 -0.000616 H 0.0 **** 0.0
11827 O 41.852074 42.422606 28.257299 O 0.0 **** 0.0
11828 H 41.932935 41.458762 28.511325 H 0.0 **** 0.0
11829 H 42.75035 42.774272 27.99368 H 0.0 **** 0.0
11830 O 11.736113 11.627749 6.890287 O 0.0 **** 0.0
11831 H 12.081722 12.316968 6.253424 H 0.0 **** 0.0
11832 H 11.006586 11.103758 6.450642 H 0.0 **** 0.0
11833 O 39.495564 1.266189 29.751734 O 0.0 **** 0.0
11834 H 39.538794 2.258781 29.637913 H 0.0 **** 0.0
11835 H 40.301575 0.847349 29.333425 H 0.0 **** 0.0
11836 O 17.839748 8.18162 22.643918 O 0.0 **** 0.0
11837 H 16.862879 8.241406 22.84938 H 0.0 **** 0.0
11838 H 18.096025 7.223063 22.519203 H 0.0 **** 0.0
11839 O 45.475364 24.522296 24.700781 O 0.0 **** 0.0
11840 H 46.3681 24.943471 24.540478 H 0.0 **** 0.0
11841 H 45.168036 24.064803 23.866327 H 0.0 **** 0.0
11842 O 14.06211 34.36887 34.728954 O 0.0 **** 0.0
11843 H 13.113692 34.618579 34.533474 H 0.0 **** 0.0
11844 H 14.100302 33.845816 35.580435 H 0.0 **** 0.0
11845 O 25.393708 24.157615 25.518386 O 0.0 **** 0.0
11846 H 24.673416 23.667987 25.026951 H 0.0 **** 0.0
11847 H 25.210032 24.122488 26.500777 H 0.0 **** 0.0
11848 O 22.467924 10.026297 0.883369 O 0.0 **** 0.0
11849 H 21.70591 10.670103 0.813288 H 0.0 **** 0.0
11850 H 22.611939 9.582783 -0.001288 H 0.0 **** 0.0
11851 O 14.993192 16.494635 45.076053 O 0.0 **** 0.0
11852 H 15.860332 15.996689 45.089452 H 0.0 **** 0.0
11853 H 14.236038 15.843872 45.01871 H 0.0 **** 0.0
11854 O 8.094715 32.570767 47.850754 O 0.0 **** 0.0
11855 H 7.547122 32.426506 47.0265 H 0.0 **** 0.0
11856 H 9.055514 32.379021 47.65035 H 0.0 **** 0.0
11857 O 18.621367 30.978184 31.58592 O 0.0 **** 0.0
11858 H 18.170744 31.831238 31.84917 H 0.0 **** 0.0
11859 H 19.585975 31.016495 31.846932 H 0.0 **** 0.0
11860 O 41.912247 1.112709 9.543668 O 0.0 **** 0.0
11861 H 41.38994 1.397732 10.347422 H 0.0 **** 0.0
11862 H 41.430047 0.36996 9.079052 H 0.0 **** 0.0
11863 O 12.321866 45.129101 21.816839 O 0.0 **** 0.0
11864 H 13.156797 44.614092 22.011052 H 0.0 **** 0.0
11865 H 12.433534 45.634624 20.961245 H 0.0 **** 0.0
11866 O 6.631887 32.921562 15.645141 O 0.0 **** 0.0
11867 H 7.432844 33.428228 15.964235 H 0.0 **** 0.0
11868 H 5.800418 33.393555 15.938305 H 0.0 **** 0.0
11869 O 0.303989 31.105494 13.458815 O 0.0 **** 0.0
11870 H 0.112341 32.086762 13.437658 H 0.0 **** 0.0
11871 H 1.292643 30.959742 13.495981 H 0.0 **** 0.0
11872 O 12.449547 2.320838 17.481425 O 0.0 **** 0.0
11873 H 12.908815 1.589921 16.976553 H 0.0 **** 0.0
11874 H 13.048328 2.648098 18.212468 H 0.0 **** 0.0
11875 O 28.679689 6.219488 37.123062 O 0.0 **** 0.0
11876 H 28.957201 5.261055 37.189821 H 0.0 **** 0.0
11877 H 27.6857 6.285524 37.210745 H 0.0 **** 0.0
11878 O 30.31522 30.370878 8.970924 O 0.0 **** 0.0
11879 H 31.055391 30.535503 8.31892 H 0.0 **** 0.0
11880 H 29.436047 30.549712 8.529183 H 0.0 **** 0.0
11881 O 31.71678 33.662953 24.022514 O 0.0 **** 0.0
11882 H 31.006417 34.366761 24.012458 H 0.0 **** 0.0
11883 H 31.957641 33.419093 23.083056 H 0.0 **** 0.0
11884 O 10.248521 36.470516 41.14475 O 0.0 **** 0.0
11885 H 10.165925 36.603371 42.13247 H 0.0 **** 0.0
11886 H 9.958439 35.543282 40.907787 H 0.0 **** 0.0
11887 O 42.612179 6.666261 28.242228 O 0.0 **** 0.0
11888 H 42.762382 5.711638 28.499517 H 0.0 **** 0.0
11889 H 43.358276 6.973563 27.651493 H 0.0 **** 0.0
11890 O 23.688698 30.962772 18.427022 O 0.0 **** 0.0
11891 H 22.884404 30.395089 18.251208 H 0.0 **** 0.0
11892 H 24.504349 30.384951 18.457033 H 0.0 **** 0.0
11893 O 29.175768 7.964098 42.996604 O 0.0 **** 0.0
11894 H 28.95296 8.876834 43.339143 H 0.0 **** 0.0
11895 H 30.14507 7.77605 43.155201 H 0.0 **** 0.0
11896 O 7.980471 35.14729 14.672543 O 0.0 **** 0.0
11897 H 8.305507 36.00148 14.266618 H 0.0 **** 0.0
11898 H 6.982132 35.114262 14.624685 H 0.0 **** 0.0
11899 O 18.312946 13.813641 29.269998 O 0.0 **** 0.0
11900 H 18.530433 14.733242 28.942743 H 0.0 **** 0.0
11901 H 19.1532 13.275133 29.333598 H 0.0 **** 0.0
11902 O 7.990581 44.750329 3.558172 O 0.0 **** 0.0
11903 H 8.417104 44.6953 4.461008 H 0.0 **** 0.0
11904 H 7.663408 43.844659 3.288387 H 0.0 **** 0.0
11905 O 11.294176 6.426244 7.887443 O 0.0 **** 0.0
11906 H 10.931814 5.519693 8.104059 H 0.0 **** 0.0
11907 H 11.366681 6.965402 8.726558 H 0.0 **** 0.0
11908 O 8.011941 35.988842 16.893506 O 0.0 **** 0.0
11909 H 8.156737 35.063762 17.244681 H 0.0 **** 0.0
11910 H 8.884897 36.370295 16.589362 H 0.0 **** 0.0
11911 O 47.81866 27.707151 4.52379 O 0.0 **** 0.0
11912 H 47.772346 28.058589 3.588691 H 0.0 **** 0.0
11913 H 47.088746 28.117441 5.070554 H 0.0 **** 0.0
11914 O 19.482742 6.436908 6.791506 O 0.0 **** 0.0
11915 H 20.236834 7.050138 7.026787 H 0.0 **** 0.0
11916 H 19.767287 5.488857 6.933966 H 0.0 **** 0.0
11917 O 42.030317 29.871217 7.647239 O 0.0 **** 0.0
11918 H 42.181568 29.664721 6.68052 H 0.0 **** 0.0
11919 H 41.341646 30.591553 7.730379 H 0.0 **** 0.0
11920 O 31.401428 29.132027 42.907538 O 0.0 **** 0.0
11921 H 32.31457 29.538299 42.873213 H 0.0 **** 0.0
11922 H 30.717439 29.856369 42.994434 H 0.0 **** 0.0
11923 O 15.215559 40.208882 43.263303 O 0.0 **** 0.0
11924 H 15.205829 39.458972 42.601787 H 0.0 **** 0.0
11925 H 14.521015 40.044437 43.963752 H 0.0 **** 0.0
11926 O 1.726001 18.037887 1.86587 O 0.0 **** 0.0
11927 H 1.994703 17.084897 1.725615 H 0.0 **** 0.0
11928 H 0.737943 18.08752 2.011955 H 0.0 **** 0.0
11929 O 17.181057 10.856906 11.726925 O 0.0 **** 0.0
11930 H 16.383242 11.459793 11.717886 H 0.0 **** 0.0
11931 H 16.881207 9.906121 11.64843 H 0.0 **** 0.0
11932 O 4.109752 38.478647 30.565777 O 0.0 **** 0.0
11933 H 3.246994 37.973829 30.536253 H 0.0 **** 0.0
11934 H 4.873917 37.83634 30.506139 H 0.0 **** 0.0
11935 O 18.199902 46.884406 9.079624 O 0.0 **** 0.0
11936 H 18.359581 45.904291 8.961554 H 0.0 **** 0.0
11937 H 17.318213 47.129392 8.6763 H 0.0 **** 0.0
11938 O 36.566872 40.104114 42.710704 O 0.0 **** 0.0
11939 H 37.566615 40.082143 42.700975 H 0.0 **** 0.0
11940 H 36.212519 39.170168 42.663355 H 0.0 **** 0.0
11941 O 16.605847 28.610648 13.07402 O 0.0 **** 0.0
11942 H 17.468245 29.107219 12.975272 H 0.0 **** 0.0
11943 H 16.79569 27.643983 13.246013 H 0.0 **** 0.0
11944 O 27.321975 46.75887 11.064249 O 0.0 **** 0.0
11945 H 26.339437 46.683924 11.23473 H 0.0 **** 0.0
11946 H 27.790871 45.972158 11.465853 H 0.0 **** 0.0
11947 O 23.073641 40.858457 44.821981 O 0.0 **** 0.0
11948 H 22.502058 41.084641 44.033186 H 0.0 **** 0.0
11949 H 22.501389 40.484786 45.552022 H 0.0 **** 0.0
11950 O 17.394246 28.888015 40.75533 O 0.0 **** 0.0
11951 H 16.858588 29.624364 41.16876 H 0.0 **** 0.0
11952 H 16.987704 28.632118 39.878231 H 0.0 **** 0.0
11953 O 1.095619 46.388587 22.687054 O 0.0 **** 0.0
11954 H 0.382302 45.687703 22.685209 H 0.0 **** 0.0
11955 H 0.672922 47.294379 22.656517 H 0.0 **** 0.0
11956 O 13.141495 6.308748 39.317683 O 0.0 **** 0.0
11957 H 13.809576 6.569695 38.620806 H 0.0 **** 0.0
11958 H 13.107137 7.013103 40.026743 H 0.0 **** 0.0
11959 O 37.323204 43.030689 12.729881 O 0.0 **** 0.0
11960 H 38.009561 42.869052 13.439001 H 0.0 **** 0.0
11961 H 37.244838 44.013003 12.559647 H 0.0 **** 0.0
11962 O 4.471498 46.06963 39.771252 O 0.0 **** 0.0
11963 H 4.375458 46.335983 40.730364 H 0.0 **** 0.0
11964 H 3.804815 45.356273 39.555109 H 0.0 **** 0.0
11965 O 22.561918 36.572 18.903411 O 0.0 **** 0.0
11966 H 22.870668 35.645096 19.116917 H 0.0 **** 0.0
11967 H 23.273996 37.227013 19.156326 H 0.0 **** 0.0
11968 O 35.257344 1.070292 39.160559 O 0.0 **** 0.0
11969 H 35.480301 0.124257 38.925246 H 0.0 **** 0.0
11970 H 34.285836 1.137023 39.388114 H 0.0 **** 0.0
11971 O 38.978534 0.306358 10.071501 O 0.0 **** 0.0
11972 H 37.992048 0.161439 9.994638 H 0.0 **** 0.0
11973 H 39.159487 1.269999 10.268264 H 0.0 **** 0.0
11974 O 42.700057 47.444899 2.939304 O 0.0 **** 0.0
11975 H 43.269093 46.631941 2.815375 H 0.0 **** 0.0
11976 H 42.625034 47.6537 3.914413 H 0.0 **** 0.0
11977 O 30.344037 17.950959 2.315526 O 0.0 **** 0.0
11978 H 29.604095 18.61372 2.430833 H 0.0 **** 0.0
11979 H 30.27975 17.252331 3.028162 H 0.0 **** 0.0
11980 O 30.831208 23.622248 17.135643 O 0.0 **** 0.0
11981 H 30.050967 23.159678 16.714552 H 0.0 **** 0.0
11982 H 30.501536 24.330516 17.759931 H 0.0 **** 0.0
11983 O 33.515305 16.730758 24.531653 O 0.0 **** 0.0
11984 H 34.421936 16.315716 24.607963 H 0.0 **** 0.0
11985 H 33.611037 17.709688 24.351111 H 0.0 **** 0.0
11986 O 24.548417 19.560262 31.869444 O 0.0 **** 0.0
11987 H 25.525033 19.512158 32.079137 H 0.0 **** 0.0
11988 H 24.023388 19.209148 32.644768 H 0.0 **** 0.0
11989 O 38.836353 38.434457 17.98129 O 0.0 **** 0.0
11990 H 38.25065 38.949723 18.607003 H 0.0 **** 0.0
11991 H 38.975527 38.962891 17.143763 H 0.0 **** 0.0
11992 O 35.793466 34.293014 41.75555 O 0.0 **** 0.0
11993 H 36.504518 33.930408 41.153068 H 0.0 **** 0.0
11994 H 34.908594 34.247339 41.291891 H 0.0 **** 0.0
11995 O 11.229876 47.302946 7.266092 O 0.0 **** 0.0
11996 H 12.150298 47.458852 7.624672 H 0.0 **** 0.0
11997 H 10.823345 46.512261 7.723928 H 0.0 **** 0.0
11998 O 9.503172 20.729074 38.851174 O 0.0 **** 0.0
11999 H 10.130893 20.835328 38.079981 H 0.0 **** 0.0
12000 H 9.953011 21.032305 39.691269 H 0.0 **** 0.0
12001 O 20.622814 9.299751 9.259759 O 0.0 **** 0.0
12002 H 20.492981 8.529018 8.635918 H 0.0 **** 0.0
12003 H 20.479743 10.156868 8.76484 H 0.0 **** 0.0
12004 O 11.353299 40.050683 39.611899 O 0.0 **** 0.0
12005 H 10.497022 40.534525 39.43093 H 0.0 **** 0.0
12006 H 11.161295 39.082775 39.77423 H 0.0 **** 0.0
12007 O 47.384919 30.829442 24.192225 O 0.0 **** 0.0
12008 H 47.999955 30.620043 24.952452 H 0.0 **** 0.0
12009 H 47.757779 31.590894 23.661914 H 0.0 **** 0.0
12010 O 6.943069 21.820204 12.424444 O 0.0 **** 0.0
12011 H 7.061411 22.636369 12.990069 H 0.0 **** 0.0
12012 H 6.846811 22.089848 11.466275 H 0.0 **** 0.0
12013 O 3.932677 28.515585 19.464523 O 0.0 **** 0.0
12014 H 4.232466 29.371077 19.04224 H 0.0 **** 0.0
12015 H 3.276791 28.715213 20.192552 H 0.0 **** 0.0
12016 O 0.31655 1.597004 13.729763 O 0.0 **** 0.0
12017 H 0.432387 0.623438 13.532751 H 0.0 **** 0.0
12018 H 1.161091 2.08463 13.508326 H 0.0 **** 0.0
12019 O 44.827273 36.554368 25.453752 O 0.0 **** 0.0
12020 H 45.649298 37.109825 25.328035 H 0.0 **** 0.0
12021 H 44.934768 35.685776 24.969959 H 0.0 **** 0.0
12022 O 23.433815 42.702634 19.345251 O 0.0 **** 0.0
12023 H 24.245016 43.278035 19.449798 H 0.0 **** 0.0
12024 H 22.635827 43.279908 19.171954 H 0.0 **** 0.0
12025 O 12.415223 1.083703 5.393046 O 0.0 **** 0.0
12026 H 11.538136 1.509076 5.616294 H 0.0 **** 0.0
12027 H 13.132627 1.780402 5.391196 H 0.0 **** 0.0
12028 O 8.970235 15.831992 40.411742 O 0.0 **** 0.0
12029 H 8.026369 15.719114 40.722288 H 0.0 **** 0.0
12030 H 9.303326 14.966949 40.03649 H 0.0 **** 0.0
12031 O 17.407343 27.284345 4.828729 O 0.0 **** 0.0
12032 H 17.152757 26.546066 5.453383 H 0.0 **** 0.0
12033 H 18.393466 27.257009 4.664783 H 0.0 **** 0.0
12034 O 9.042505 2.751342 32.665572 O 0.0 **** 0.0
12035 H 10.002067 2.795313 32.943728 H 0.0 **** 0.0
12036 H 8.919408 3.257634 31.812004 H 0.0 **** 0.0
12037 O 37.406299 31.082779 45.00053 O 0.0 **** 0.0
12038 H 38.121998 30.386074 44.951118 H 0.0 **** 0.0
12039 H 36.584727 30.688001 45.41191 H 0.0 **** 0.0
12040 O 9.638921 6.392248 18.474251 O 0.0 **** 0.0
12041 H 8.699576 6.68741 18.649106 H 0.0 **** 0.0
12042 H 10.228196 7.194634 18.379414 H 0.0 **** 0.0
12043 O 45.605933 9.575128 13.561108 O 0.0 **** 0.0
12044 H 46.581199 9.428921 13.727066 H 0.0 **** 0.0
12045 H 45.357894 9.190732 12.67185 H 0.0 **** 0.0
12046 O 15.725943 13.01812 19.379015 O 0.0 **** 0.0
12047 H 15.511673 13.668464 20.107852 H 0.0 **** 0.0
12048 H 16.571351 13.295682 18.922607 H 0.0 **** 0.0
12049 O 45.536885 2.739316 36.394213 O 0.0 **** 0.0
12050 H 45.011862 2.141466 37.000009 H 0.0 **** 0.0
12051 H 44.991823 2.954266 35.583802 H 0.0 **** 0.0
12052 O 42.150985 16.695141 20.018325 O 0.0 **** 0.0
12053 H 41.335243 16.24391 19.65636 H 0.0 **** 0.0
12054 H 42.390033 17.470514 19.433759 H 0.0 **** 0.0
12055 O 32.969349 47.572229 30.063956 O 0.0 **** 0.0
12056 H 32.672812 46.709116 29.6551 H 0.0 **** 0.0
12057 H 33.533307 47.383736 30.867999 H 0.0 **** 0.0
12058 O 39.875093 14.387197 46.086801 O 0.0 **** 0.0
12059 H 40.104313 15.359716 46.128363 H 0.0 **** 0.0
12060 H 40.664117 13.846089 46.377846 H 0.0 **** 0.0
12061 O 24.789113 40.937086 43.335113 O 0.0 **** 0.0
12062 H 24.50797 40.017803 43.059539 H 0.0 **** 0.0
12063 H 25.76385 40.934535 43.558595 H 0.0 **** 0.0
12064 O 39.344186 25.10419 42.616622 O 0.0 **** 0.0
12065 H 38.560036 24.585564 42.957501 H 0.0 **** 0.0
12066 H 39.840457 25.503259 43.387675 H 0.0 **** 0.0
12067 O 16.209362 14.531021 25.711635 O 0.0 **** 0.0
12068 H 15.685465 15.382828 25.707072 H 0.0 **** 0.0
12069 H 15.581034 13.753445 25.736985 H 0.0 **** 0.0
12070 O 29.04857 30.889498 0.042448 O 0.0 **** 0.0
12071 H 28.165517 30.422014 0.000766 H 0.0 **** 0.0
12072 H 28.902326 31.878778 0.041255 H 0.0 **** 0.0
12073 O 15.770688 8.31292 16.185619 O 0.0 **** 0.0
12074 H 16.497741 8.826159 16.641737 H 0.0 **** 0.0
12075 H 16.012626 7.342915 16.160758 H 0.0 **** 0.0
12076 O 8.676054 4.542304 20.057298 O 0.0 **** 0.0
12077 H 8.199497 3.663289 20.074324 H 0.0 **** 0.0
12078 H 8.016397 5.281703 20.192226 H 0.0 **** 0.0
12079 O 33.318993 14.868355 36.383392 O 0.0 **** 0.0
12080 H 32.672154 15.253957 37.041399 H 0.0 **** 0.0
12081 H 32.832342 14.263647 35.752868 H 0.0 **** 0.0
12082 O 44.179198 37.508792 47.667082 O 0.0 **** 0.0
12083 H 44.022303 36.528218 47.549092 H 0.0 **** 0.0
12084 H 45.109961 37.659666 48.000217 H 0.0 **** 0.0
12085 O 2.72166 19.567691 24.913635 O 0.0 **** 0.0
12086 H 2.215458 20.148615 25.55109 H 0.0 **** 0.0
12087 H 3.40588 19.038962 25.415981 H 0.0 **** 0.0
12088 O 30.127149 15.295793 6.525297 O 0.0 **** 0.0
12089 H 30.103931 14.550604 5.8588 H 0.0 **** 0.0
12090 H 30.818785 15.964865 6.253185 H 0.0 **** 0.0
12091 O 31.994986 41.834867 19.097986 O 0.0 **** 0.0
12092 H 31.533667 42.350076 19.820348 H 0.0 **** 0.0
12093 H 31.446544 41.033933 18.857609 H 0.0 **** 0.0
12094 O 33.145496 7.45228 39.845368 O 0.0 **** 0.0
12095 H 33.070788 8.340886 40.297984 H 0.0 **** 0.0
12096 H 33.830996 6.895726 40.314834 H 0.0 **** 0.0
12097 O 23.846827 18.252024 8.875979 O 0.0 **** 0.0
12098 H 24.052431 18.111479 9.844502 H 0.0 **** 0.0
12099 H 24.678586 18.530569 8.395716 H 0.0 **** 0.0
12100 O 4.472244 23.925109 22.267237 O 0.0 **** 0.0
12101 H 4.720829 24.863443 22.026826 H 0.0 **** 0.0
12102 H 4.233192 23.881797 23.23731 H 0.0 **** 0.0
12103 O 15.205966 20.09366 33.526755 O 0.0 **** 0.0
12104 H 15.043871 20.846054 32.888247 H 0.0 **** 0.0
12105 H 15.742872 19.381922 33.073737 H 0.0 **** 0.0
12106 O 23.919112 10.747116 37.757411 O 0.0 **** 0.0
12107 H 22.965146 10.989755 37.93387 H 0.0 **** 0.0
12108 H 23.980984 9.772114 37.543855 H 0.0 **** 0.0
12109 O 19.03517 6.240978 9.961585 O 0.0 **** 0.0
12110 H 18.892313 5.28655 10.223733 H 0.0 **** 0.0
12111 H 19.838762 6.307424 9.37007 H 0.0 **** 0.0
12112 O 22.604187 30.305659 15.907115 O 0.0 **** 0.0
12113 H 23.423435 29.78238 16.141797 H 0.0 **** 0.0
12114 H 22.810361 30.925913 15.150253 H 0.0 **** 0.0
12115 O 12.004266 9.419824 28.126027 O 0.0 **** 0.0
12116 H 12.223295 9.891224 28.980352 H 0.0 **** 0.0
12117 H 11.905331 8.440335 28.301744 H 0.0 **** 0.0
12118 O 32.397312 37.736191 47.683011 O 0.0 **** 0.0
12119 H 31.993171 38.458149 47.121309 H 0.0 **** 0.0
12120 H 33.307707 38.019127 47.984988 H 0.0 **** 0.0
12121 O 31.145404 4.142858 21.652495 O 0.0 **** 0.0
12122 H 31.816796 4.836166 21.39054 H 0.0 **** 0.0
12123 H 30.268859 4.583884 21.84544 H 0.0 **** 0.0
12124 O 1.455861 10.770725 1.19207 O 0.0 **** 0.0
12125 H 0.866597 10.11064 0.72611 H 0.0 **** 0.0
12126 H 2.402761 10.450353 1.163699 H 0.0 **** 0.0
12127 O 45.626351 10.807868 37.281287 O 0.0 **** 0.0
12128 H 46.567749 11.140977 37.334866 H 0.0 **** 0.0
12129 H 45.581665 10.03557 36.647551 H 0.0 **** 0.0
12130 O 16.659279 29.88528 10.886272 O 0.0 **** 0.0
12131 H 15.85033 29.924137 11.472919 H 0.0 **** 0.0
12132 H 16.765913 30.756745 10.40748 H 0.0 **** 0.0
12133 O 5.129228 19.869616 37.038333 O 0.0 **** 0.0
12134 H 4.514737 19.805856 36.251949 H 0.0 **** 0.0
12135 H 5.039406 19.046475 37.599076 H 0.0 **** 0.0
12136 O 25.503136 28.179206 -0.006468 O 0.0 **** 0.0
12137 H 26.469197 28.18026 0.251969 H 0.0 **** 0.0
12138 H 25.069066 27.343453 0.329928 H 0.0 **** 0.0
12139 O 37.124727 35.506983 43.012167 O 0.0 **** 0.0
12140 H 37.818481 36.22578 42.966343 H 0.0 **** 0.0
12141 H 37.57155 34.612336 43.016459 H 0.0 **** 0.0
12142 O 38.54535 38.504946 40.863332 O 0.0 **** 0.0
12143 H 39.083337 39.142779 41.414515 H 0.0 **** 0.0
12144 H 37.571298 38.682242 41.004231 H 0.0 **** 0.0
12145 O 24.187809 44.147936 22.146987 O 0.0 **** 0.0
12146 H 24.444872 43.181699 22.127772 H 0.0 **** 0.0
12147 H 24.901839 44.691602 21.705794 H 0.0 **** 0.0
12148 O 17.062023 27.885052 47.1264 O 0.0 **** 0.0
12149 H 16.13172 28.244726 47.198741 H 0.0 **** 0.0
12150 H 17.10719 26.987165 47.564376 H 0.0 **** 0.0
12151 O 22.608818 18.925776 22.854883 O 0.0 **** 0.0
12152 H 21.712725 19.308097 22.629249 H 0.0 **** 0.0
12153 H 23.200111 19.649711 23.210344 H 0.0 **** 0.0
12154 O 11.063862 37.765311 14.062995 O 0.0 **** 0.0
12155 H 10.566465 37.589555 14.912565 H 0.0 **** 0.0
12156 H 10.518489 37.450258 13.286224 H 0.0 **** 0.0
12157 O 31.499709 28.983135 47.731731 O 0.0 **** 0.0
12158 H 30.599943 28.639375 48.000643 H 0.0 **** 0.0
12159 H 31.40478 29.902612 47.350136 H 0.0 **** 0.0
12160 O 10.123767 13.415314 24.554755 O 0.0 **** 0.0
12161 H 9.185094 13.332737 24.889622 H 0.0 **** 0.0
12162 H 10.703072 12.744552 25.017947 H 0.0 **** 0.0
12163 O 20.422196 13.396267 15.409919 O 0.0 **** 0.0
12164 H 20.885988 13.971276 14.735883 H 0.0 **** 0.0
12165 H 20.443988 13.845868 16.302918 H 0.0 **** 0.0
12166 O 43.424648 44.227989 42.594047 O 0.0 **** 0.0
12167 H 42.652258 44.158314 43.225413 H 0.0 **** 0.0
12168 H 43.30027 45.024185 42.001878 H 0.0 **** 0.0
12169 O 5.277467 24.404912 39.665821 O 0.0 **** 0.0
12170 H 4.840515 24.718152 40.509039 H 0.0 **** 0.0
12171 H 5.519454 25.194948 39.102484 H 0.0 **** 0.0
12172 O 27.071685 20.379509 8.336709 O 0.0 **** 0.0
12173 H 26.081768 20.521141 8.344952 H 0.0 **** 0.0
12174 H 27.284138 19.487985 8.736848 H 0.0 **** 0.0
12175 O 43.321445 27.357583 16.388498 O 0.0 **** 0.0
12176 H 44.022302 26.674017 16.184535 H 0.0 **** 0.0
12177 H 43.522069 27.788285 17.268447 H 0.0 **** 0.0
12178 O 12.910216 32.306501 6.98532 O 0.0 **** 0.0
12179 H 12.407453 33.169847 7.029205 H 0.0 **** 0.0
12180 H 12.406709 31.601836 7.48531 H 0.0 **** 0.0
12181 O 37.797311 29.706432 35.112221 O 0.0 **** 0.0
12182 H 37.99262 28.832729 34.66662 H 0.0 **** 0.0
12183 H 38.468152 30.387534 34.818735 H 0.0 **** 0.0
12184 O 29.991545 27.802383 4.363515 O 0.0 **** 0.0
12185 H 30.091682 26.978064 4.92077 H 0.0 **** 0.0
12186 H 30.837144 28.334926 4.401249 H 0.0 **** 0.0
12187 O 31.875595 40.663845 0.689604 O 0.0 **** 0.0
12188 H 31.156786 40.594676 -0.002201 H 0.0 **** 0.0
12189 H 32.14057 41.621762 0.800266 H 0.0 **** 0.0
12190 O 22.427671 37.179925 39.047136 O 0.0 **** 0.0
12191 H 21.525479 37.591318 38.917259 H 0.0 **** 0.0
12192 H 22.322902 36.257057 39.417813 H 0.0 **** 0.0
12193 O 47.214978 25.009457 46.703665 O 0.0 **** 0.0
12194 H 47.52458 24.751351 47.618865 H 0.0 **** 0.0
12195 H 47.997409 25.315018 46.160989 H 0.0 **** 0.0
12196 O 15.423774 29.268927 34.870212 O 0.0 **** 0.0
12197 H 16.039371 28.519353 34.626813 H 0.0 **** 0.0
12198 H 15.195464 29.792582 34.049406 H 0.0 **** 0.0
12199 O 39.566899 26.523024 39.300359 O 0.0 **** 0.0
12200 H 39.536878 26.912927 38.379958 H 0.0 **** 0.0
12201 H 40.38764 26.845237 39.77219 H 0.0 **** 0.0
12202 O 35.398187 12.21173 34.383902 O 0.0 **** 0.0
12203 H 35.403828 11.263846 34.702566 H 0.0 **** 0.0
12204 H 35.731903 12.810192 35.112283 H 0.0 **** 0.0
12205 O 16.063518 31.264751 25.649362 O 0.0 **** 0.0
12206 H 16.320703 30.304158 25.543626 H 0.0 **** 0.0
12207 H 15.780865 31.432058 26.593914 H 0.0 **** 0.0
12208 O 40.019696 45.697871 25.874145 O 0.0 **** 0.0
12209 H 39.599403 44.791089 25.84002 H 0.0 **** 0.0
12210 H 39.439065 46.352743 25.390334 H 0.0 **** 0.0
12211 O 8.972357 18.608652 2.173093 O 0.0 **** 0.0
12212 H 9.908731 18.262963 2.234459 H 0.0 **** 0.0
12213 H 8.473701 18.097733 1.47283 H 0.0 **** 0.0
12214 O 20.722937 25.552699 23.571563 O 0.0 **** 0.0
12215 H 20.649388 25.4386 24.562338 H 0.0 **** 0.0
12216 H 21.675497 25.733668 23.326731 H 0.0 **** 0.0
12217 O 3.369199 1.7936 21.47634 O 0.0 **** 0.0
12218 H 3.073432 2.727524 21.275414 H 0.0 **** 0.0
12219 H 2.745364 1.145261 21.03982 H 0.0 **** 0.0
12220 O 0.748001 8.494652 44.999566 O 0.0 **** 0.0
12221 H 0.805741 8.276314 45.973762 H 0.0 **** 0.0
12222 H -0.000395 9.140039 44.846459 H 0.0 **** 0.0
12223 O 10.545238 21.538472 41.745948 O 0.0 **** 0.0
12224 H 10.608007 22.536506 41.738739 H 0.0 **** 0.0
12225 H 11.461857 21.147489 41.829644 H 0.0 **** 0.0
12226 O 26.961278 9.063064 37.652784 O 0.0 **** 0.0
12227 H 26.110159 9.04145 38.177372 H 0.0 **** 0.0
12228 H 26.944372 8.341769 36.960317 H 0.0 **** 0.0
12229 O 32.804448 26.652436 3.334058 O 0.0 **** 0.0
12230 H 32.843449 27.572102 2.943218 H 0.0 **** 0.0
12231 H 31.928541 26.524976 3.799465 H 0.0 **** 0.0
12232 O 40.166184 7.211734 26.415316 O 0.0 **** 0.0
12233 H 40.748031 6.738706 27.076952 H 0.0 **** 0.0
12234 H 39.229634 6.869228 26.490331 H 0.0 **** 0.0
12235 O 8.991377 29.522912 18.848815 O 0.0 **** 0.0
12236 H 9.297531 30.044304 19.645359 H 0.0 **** 0.0
12237 H 8.6088 30.147927 18.168335 H 0.0 **** 0.0
12238 O 46.576454 35.369556 16.255767 O 0.0 **** 0.0
12239 H 46.504886 36.289363 15.869897 H 0.0 **** 0.0
12240 H 47.469466 34.981228 16.028185 H 0.0 **** 0.0
12241 O 39.350294 23.632108 19.003116 O 0.0 **** 0.0
12242 H 39.276007 23.841509 19.978152 H 0.0 **** 0.0
12243 H 39.457814 22.645351 18.881412 H 0.0 **** 0.0
12244 O 0.889918 18.509269 22.180213 O 0.0 **** 0.0
12245 H 0.866308 18.752338 21.210459 H 0.0 **** 0.0
12246 H 1.164665 19.306946 22.717138 H 0.0 **** 0.0
12247 O 33.788447 21.898495 7.330789 O 0.0 **** 0.0
12248 H 33.371775 21.186672 6.76532 H 0.0 **** 0.0
12249 H 34.784148 21.843287 7.255983 H 0.0 **** 0.0
12250 O 24.726595 32.380362 20.492422 O 0.0 **** 0.0
12251 H 25.295644 31.603928 20.221505 H 0.0 **** 0.0
12252 H 24.180399 32.681988 19.710914 H 0.0 **** 0.0
12253 O 32.4689 38.097408 4.265398 O 0.0 **** 0.0
12254 H 31.856288 37.314612 4.155853 H 0.0 **** 0.0
12255 H 31.9803 38.938188 4.032115 H 0.0 **** 0.0
12256 O 18.921525 28.046799 19.539247 O 0.0 **** 0.0
12257 H 19.538123 28.697795 19.982051 H 0.0 **** 0.0
12258 H 18.59646 28.430642 18.67492 H 0.0 **** 0.0
12259 O 39.088787 42.569683 0.217796 O 0.0 **** 0.0
12260 H 38.143431 42.811552 -0.000983 H 0.0 **** 0.0
12261 H 39.309122 42.887207 1.140126 H 0.0 **** 0.0
12262 O 18.164915 11.846278 44.650161 O 0.0 **** 0.0
12263 H 17.30302 11.567276 45.073668 H 0.0 **** 0.0
12264 H 18.653218 11.036903 44.323763 H 0.0 **** 0.0
12265 O 12.488027 4.016769 5.964706 O 0.0 **** 0.0
12266 H 13.478259 3.877365 5.956314 H 0.0 **** 0.0
12267 H 12.150003 4.063025 5.024673 H 0.0 **** 0.0
12268 O 22.863804 42.145917 15.306351 O 0.0 **** 0.0
12269 H 23.105244 41.225393 14.999096 H 0.0 **** 0.0
12270 H 22.207211 42.084817 16.058159 H 0.0 **** 0.0
12271 O 36.532577 36.393297 3.947508 O 0.0 **** 0.0
12272 H 36.314977 35.702552 4.637134 H 0.0 **** 0.0
12273 H 36.505445 35.976968 3.038664 H 0.0 **** 0.0
12274 O 10.435423 14.899204 34.560318 O 0.0 **** 0.0
12275 H 9.695832 15.570546 34.511655 H 0.0 **** 0.0
12276 H 11.117538 15.103321 33.858093 H 0.0 **** 0.0
12277 O 0.947966 33.872873 27.188054 O 0.0 **** 0.0
12278 H 0.381677 34.669285 27.400442 H 0.0 **** 0.0
12279 H 0.422953 33.229765 26.630528 H 0.0 **** 0.0
12280 O 10.432087 39.362784 45.598529 O 0.0 **** 0.0
12281 H 9.67793 39.816738 46.07312 H 0.0 **** 0.0
12282 H 10.077588 38.589793 45.072336 H 0.0 **** 0.0
12283 O 9.845616 42.243545 45.709661 O 0.0 **** 0.0
12284 H 10.495776 41.668756 45.212697 H 0.0 **** 0.0
12285 H 10.306977 43.073077 46.024441 H 0.0 **** 0.0
12286 O 44.402795 33.725726 25.812792 O 0.0 **** 0.0
12287 H 43.86309 32.91812 25.57498 H 0.0 **** 0.0
12288 H 44.650478 33.687801 26.780923 H 0.0 **** 0.0
12289 O 22.399138 3.879641 45.578962 O 0.0 **** 0.0
12290 H 21.643669 3.401739 45.130699 H 0.0 **** 0.0
12291 H 23.020954 3.211204 45.987128 H 0.0 **** 0.0
12292 O 23.157273 21.431829 37.994858 O 0.0 **** 0.0
12293 H 22.773401 22.161008 37.428287 H 0.0 **** 0.0
12294 H 23.239431 21.751499 38.938852 H 0.0 **** 0.0
12295 O 37.286892 10.203151 10.105212 O 0.0 **** 0.0
12296 H 37.84374 10.156435 10.934549 H 0.0 **** 0.0
12297 H 37.033239 11.153962 9.927217 H 0.0 **** 0.0
12298 O 31.458642 35.069376 34.160004 O 0.0 **** 0.0
12299 H 30.774835 34.347491 34.053456 H 0.0 **** 0.0
12300 H 32.364008 34.657915 34.265244 H 0.0 **** 0.0
12301 O 39.522367 17.973891 43.205036 O 0.0 **** 0.0
12302 H 39.107668 18.238887 44.07559 H 0.0 **** 0.0
12303 H 39.607693 18.778847 42.617815 H 0.0 **** 0.0
12304 O 25.590526 28.141525 46.02615 O 0.0 **** 0.0
12305 H 26.254923 27.395767 45.976292 H 0.0 **** 0.0
12306 H 26.039549 29.004065 45.792771 H 0.0 **** 0.0
12307 O 7.482317 28.013952 9.927179 O 0.0 **** 0.0
12308 H 8.23361 28.509413 9.491127 H 0.0 **** 0.0
12309 H 7.853868 27.338591 10.564282 H 0.0 **** 0.0
12310 O 7.893561 13.788415 48.012962 O 0.0 **** 0.0
12311 H 8.386459 14.37069 47.366379 H 0.0 **** 0.0
12312 H 6.909759 13.873263 47.854858 H 0.0 **** 0.0
12313 O 10.631226 18.405691 24.31942 O 0.0 **** 0.0
12314 H 11.389168 18.758608 23.770751 H 0.0 **** 0.0
12315 H 10.253634 17.590206 23.880704 H 0.0 **** 0.0
12316 O 12.390929 33.799621 14.006507 O 0.0 **** 0.0
12317 H 11.769303 34.501577 14.354217 H 0.0 **** 0.0
12318 H 11.905287 32.928006 13.939403 H 0.0 **** 0.0
12319 O 24.96085 33.655588 34.305954 O 0.0 **** 0.0
12320 H 24.584705 34.523603 33.981719 H 0.0 **** 0.0
12321 H 25.250654 33.10482 33.523182 H 0.0 **** 0.0
12322 O 1.487816 2.059582 26.382653 O 0.0 **** 0.0
12323 H 2.354831 2.498447 26.618756 H 0.0 **** 0.0
12324 H 1.276487 1.353844 27.05892 H 0.0 **** 0.0
12325 O 44.658681 32.539817 34.073031 O 0.0 **** 0.0
12326 H 44.957496 32.817917 34.985956 H 0.0 **** 0.0
12327 H 43.858535 31.945054 34.151041 H 0.0 **** 0.0
12328 O 45.356291 26.491329 29.083774 O 0.0 **** 0.0
12329 H 45.60071 26.91124 28.209705 H 0.0 **** 0.0
12330 H 45.935904 25.692149 29.243219 H 0.0 **** 0.0
12331 O 9.488719 16.899851 14.350544 O 0.0 **** 0.0
12332 H 9.170149 16.425272 15.171123 H 0.0 **** 0.0
12333 H 10.073795 17.666557 14.614953 H 0.0 **** 0.0
12334 O 28.103849 10.567662 9.591129 O 0.0 **** 0.0
12335 H 28.843492 9.928131 9.381392 H 0.0 **** 0.0
12336 H 28.113066 10.778906 10.568551 H 0.0 **** 0.0
12337 O 4.221097 2.312414 0.698787 O 0.0 **** 0.0
12338 H 4.04247 1.353164 0.479709 H 0.0 **** 0.0
12339 H 3.563166 2.625988 1.383521 H 0.0 **** 0.0
12340 O 33.566177 23.506201 27.497775 O 0.0 **** 0.0
12341 H 33.230517 22.672447 27.936239 H 0.0 **** 0.0
12342 H 34.147259 23.263464 26.720931 H 0.0 **** 0.0
12343 O 41.790485 35.986265 25.315647 O 0.0 **** 0.0
12344 H 42.733695 35.927774 25.642748 H 0.0 **** 0.0
12345 H 41.379699 35.074502 25.318234 H 0.0 **** 0.0
12346 O 29.428554 14.070409 28.305178 O 0.0 **** 0.0
12347 H 30.236664 13.993883 27.721085 H 0.0 **** 0.0
12348 H 28.926465 14.903235 28.072004 H 0.0 **** 0.0
12349 O 17.532644 5.024088 12.983589 O 0.0 **** 0.0
12350 H 17.193912 5.539501 12.196396 H 0.0 **** 0.0
12351 H 16.939252 4.235714 13.14612 H 0.0 **** 0.0
12352 O 21.112552 7.678678 42.740699 O 0.0 **** 0.0
12353 H 22.01824 7.416667 42.407319 H 0.0 **** 0.0
12354 H 20.430192 7.036489 42.391357 H 0.0 **** 0.0
12355 O 10.722116 11.165845 20.463015 O 0.0 **** 0.0
12356 H 11.165874 11.153905 19.566912 H 0.0 **** 0.0
12357 H 10.732519 10.244779 20.852362 H 0.0 **** 0.0
12358 O 5.894764 40.392023 23.775858 O 0.0 **** 0.0
12359 H 6.037125 39.410476 23.903774 H 0.0 **** 0.0
12360 H 6.779351 40.858314 23.763934 H 0.0 **** 0.0
12361 O 34.986914 30.494069 22.181645 O 0.0 **** 0.0
12362 H 34.940985 31.314009 21.610985 H 0.0 **** 0.0
12363 H 35.763661 30.566566 22.807322 H 0.0 **** 0.0
12364 O 44.803131 13.930265 34.728964 O 0.0 **** 0.0
12365 H 44.635307 13.169222 35.35563 H 0.0 **** 0.0
12366 H 45.673266 14.365997 34.959324 H 0.0 **** 0.0
12367 O 32.127675 26.294553 37.525635 O 0.0 **** 0.0
12368 H 32.820977 25.649462 37.846965 H 0.0 **** 0.0
12369 H 31.250207 26.082476 37.955909 H 0.0 **** 0.0
12370 O 23.477521 11.97348 3.450687 O 0.0 **** 0.0
12371 H 23.554281 12.564544 4.253691 H 0.0 **** 0.0
12372 H 22.534355 11.653248 3.361514 H 0.0 **** 0.0
12373 O 34.879939 18.874093 25.897483 O 0.0 **** 0.0
12374 H 34.913166 19.485833 25.107082 H 0.0 **** 0.0
12375 H 35.339685 18.01475 25.673373 H 0.0 **** 0.0
12376 O 32.411784 13.374101 6.225077 O 0.0 **** 0.0
12377 H 32.675137 13.791924 7.094635 H 0.0 **** 0.0
12378 H 32.302862 14.086977 5.532251 H 0.0 **** 0.0
12379 O 1.353457 19.206205 29.567128 O 0.0 **** 0.0
12380 H 2.315022 19.110628 29.824655 H 0.0 **** 0.0
12381 H 1.29158 19.60289 28.651227 H 0.0 **** 0.0
12382 O 46.886289 32.018601 44.083209 O 0.0 **** 0.0
12383 H 46.227322 32.163693 43.345121 H 0.0 **** 0.0
12384 H 47.555803 32.761443 44.083038 H 0.0 **** 0.0
12385 O 0.588039 45.607136 25.000125 O 0.0 **** 0.0
12386 H 1.001022 46.49872 25.186101 H 0.0 **** 0.0
12387 H 1.305812 44.94718 24.778039 H 0.0 **** 0.0
12388 O 19.544139 18.142915 36.907283 O 0.0 **** 0.0
12389 H 20.308746 18.743865 36.674265 H 0.0 **** 0.0
12390 H 18.80103 18.279803 36.252215 H 0.0 **** 0.0
12391 O 23.32312 33.999 36.294522 O 0.0 **** 0.0
12392 H 22.679283 33.259489 36.491144 H 0.0 **** 0.0
12393 H 23.365528 34.620712 37.07666 H 0.0 **** 0.0
12394 O 0.537196 14.777828 35.34914 O 0.0 **** 0.0
12395 H 0.018205 15.542129 34.966314 H 0.0 **** 0.0
12396 H -0.003096 13.939315 35.278121 H 0.0 **** 0.0
12397 O 7.687137 29.933901 41.602436 O 0.0 **** 0.0
12398 H 7.479854 30.908814 41.520934 H 0.0 **** 0.0
12399 H 7.154019 29.541352 42.351938 H 0.0 **** 0.0
12400 O 0.338503 23.793578 46.990606 O 0.0 **** 0.0
12401 H 0.719492 23.12808 47.632496 H 0.0 **** 0.0
12402 H 0.661766 24.709397 47.229018 H 0.0 **** 0.0
12403 O 33.637649 -0.01629 5.171372 O 0.0 **** 0.0
12404 H 34.134407 0.35381 5.956433 H 0.0 **** 0.0
12405 H 32.73911 0.418429 5.110467 H 0.0 **** 0.0
12406 O 38.208705 5.980175 1.374231 O 0.0 **** 0.0
12407 H 37.264781 5.649919 1.373032 H 0.0 **** 0.0
12408 H 38.83465 5.200275 1.377715 H 0.0 **** 0.0
12409 O 7.470866 37.61969 41.425755 O 0.0 **** 0.0
12410 H 6.934182 37.537412 40.585955 H 0.0 **** 0.0
12411 H 8.428655 37.789777 41.193863 H 0.0 **** 0.0
12412 O 21.168248 45.407959 13.698067 O 0.0 **** 0.0
12413 H 21.685381 46.263458 13.670546 H 0.0 **** 0.0
12414 H 20.252989 45.559631 13.324758 H 0.0 **** 0.0
12415 O 17.865721 20.149133 18.136255 O 0.0 **** 0.0
12416 H 18.248549 20.627838 18.926411 H 0.0 **** 0.0
12417 H 17.314703 20.785235 17.596056 H 0.0 **** 0.0
12418 O 25.975084 16.3096 9.608513 O 0.0 **** 0.0
12419 H 26.218695 17.230384 9.303761 H 0.0 **** 0.0
12420 H 26.542978 16.056651 10.391823 H 0.0 **** 0.0
12421 O 34.159501 45.188313 30.860615 O 0.0 **** 0.0
12422 H 33.933044 44.918857 29.924573 H 0.0 **** 0.0
12423 H 33.432412 44.889269 31.478659 H 0.0 **** 0.0
12424 O 4.924353 33.865089 18.300172 O 0.0 **** 0.0
12425 H 5.84651 34.251975 18.30317 H 0.0 **** 0.0
12426 H 4.25906 34.587944 18.487065 H 0.0 **** 0.0
12427 O 15.847168 4.845564 39.23592 O 0.0 **** 0.0
12428 H 16.210243 4.031488 38.782576 H 0.0 **** 0.0
12429 H 15.72372 4.657301 40.210282 H 0.0 **** 0.0
12430 O 28.566676 11.654033 38.082591 O 0.0 **** 0.0
12431 H 29.115568 12.483612 37.979734 H 0.0 **** 0.0
12432 H 29.08957 10.866008 37.757535 H 0.0 **** 0.0
12433 O 10.809479 19.251983 18.550547 O 0.0 **** 0.0
12434 H 9.960921 19.770651 18.445682 H 0.0 **** 0.0
12435 H 11.591142 19.860853 18.415107 H 0.0 **** 0.0
12436 O 31.97362 14.705017 13.65999 O 0.0 **** 0.0
12437 H 31.676049 14.617224 14.610678 H 0.0 **** 0.0
12438 H 32.938109 14.450815 13.587837 H 0.0 **** 0.0
12439 O 15.671077 43.000743 43.887323 O 0.0 **** 0.0
12440 H 15.251496 43.902043 43.995369 H 0.0 **** 0.0
12441 H 14.963948 42.295533 43.939399 H 0.0 **** 0.0
12442 O 11.316783 30.939144 44.723024 O 0.0 **** 0.0
12443 H 11.910579 31.726024 44.554826 H 0.0 **** 0.0
12444 H 11.871555 30.109022 44.779481 H 0.0 **** 0.0
12445 O 11.692829 10.809061 13.18446 O 0.0 **** 0.0
12446 H 11.602289 9.944542 13.678902 H 0.0 **** 0.0
12447 H 10.844107 11.331302 13.268115 H 0.0 **** 0.0
12448 O 6.353639 21.613693 45.930685 O 0.0 **** 0.0
12449 H 6.405403 20.661207 45.63043 H 0.0 **** 0.0
12450 H 7.256677 22.036581 45.854854 H 0.0 **** 0.0
12451 O 11.331149 41.54812 7.776999 O 0.0 **** 0.0
12452 H 10.66853 42.296936 7.793495 H 0.0 **** 0.0
12453 H 10.848613 40.67462 7.841951 H 0.0 **** 0.0
12454 O 19.80591 18.205707 6.004782 O 0.0 **** 0.0
12455 H 19.205195 17.426902 6.185525 H 0.0 **** 0.0
12456 H 19.35205 19.049924 6.290039 H 0.0 **** 0.0
12457 O 43.387918 19.678248 20.777406 O 0.0 **** 0.0
12458 H 44.112258 20.364361 20.709255 H 0.0 **** 0.0
12459 H 43.79579 18.766204 20.82075 H 0.0 **** 0.0
12460 O 4.710075 42.036829 41.20511 O 0.0 **** 0.0
12461 H 5.580555 42.035757 41.697377 H 0.0 **** 0.0
12462 H 4.883575 42.084065 40.221378 H 0.0 **** 0.0
12463 O 11.05106 42.931849 36.919273 O 0.0 **** 0.0
12464 H 11.358683 42.457438 37.744116 H 0.0 **** 0.0
12465 H 10.947861 43.907163 37.114661 H 0.0 **** 0.0
12466 O 38.82265 44.833174 29.305256 O 0.0 **** 0.0
12467 H 39.34868 43.983616 29.265167 H 0.0 **** 0.0
12468 H 37.88759 44.632702 29.597721 H 0.0 **** 0.0
12469 O 20.614605 1.562729 42.697314 O 0.0 **** 0.0
12470 H 21.262684 1.620533 41.937896 H 0.0 **** 0.0
12471 H 21.014361 1.019979 43.436015 H 0.0 **** 0.0
12472 O 37.02817 6.892266 39.897185 O 0.0 **** 0.0
12473 H 37.261774 7.862236 39.965374 H 0.0 **** 0.0
12474 H 37.803377 6.340356 40.204614 H 0.0 **** 0.0
12475 O 38.472378 47.144393 21.760254 O 0.0 **** 0.0
12476 H 37.966034 47.336285 22.601001 H 0.0 **** 0.0
12477 H 38.803579 48.002359 21.367488 H 0.0 **** 0.0
12478 O 9.196922 12.297755 41.81107 O 0.0 **** 0.0
12479 H 8.264908 12.656893 41.860387 H 0.0 **** 0.0
12480 H 9.168206 11.329165 41.563941 H 0.0 **** 0.0
12481 O 34.799314 6.276962 10.518185 O 0.0 **** 0.0
12482 H 33.800357 6.302869 10.556616 H 0.0 **** 0.0
12483 H 35.088569 5.708559 9.747917 H 0.0 **** 0.0
12484 O 13.094773 46.619322 36.579182 O 0.0 **** 0.0
12485 H 14.029071 46.751229 36.247894 H 0.0 **** 0.0
12486 H 12.687434 47.507915 36.790228 H 0.0 **** 0.0
12487 O 21.707156 32.189464 30.741082 O 0.0 **** 0.0
12488 H 21.809269 31.398425 31.344317 H 0.0 **** 0.0
12489 H 20.747908 32.283736 30.47459 H 0.0 **** 0.0
12490 O 9.235578 36.823363 39.144571 O 0.0 **** 0.0
12491 H 9.592397 37.747306 39.006466 H 0.0 **** 0.0
12492 H 8.283902 36.784623 38.839817 H 0.0 **** 0.0
12493 O 33.642066 36.558373 25.430176 O 0.0 **** 0.0
12494 H 34.582989 36.598888 25.093894 H 0.0 **** 0.0
12495 H 33.290247 35.628222 25.324795 H 0.0 **** 0.0
12496 O 15.785063 9.927128 13.965265 O 0.0 **** 0.0
12497 H 15.255983 10.15001 13.146449 H 0.0 **** 0.0
12498 H 16.589768 10.5189 14.013412 H 0.0 **** 0.0
12499 O 5.545744 13.278062 41.842526 O 0.0 **** 0.0
12500 H 6.385713 13.797555 41.999504 H 0.0 **** 0.0
12501 H 4.952131 13.354229 42.643704 H 0.0 **** 0.0
12502 O 37.747628 34.038074 4.757907 O 0.0 **** 0.0
12503 H 37.825759 34.466573 5.6581 H 0.0 **** 0.0
12504 H 36.86619 33.571146 4.686438 H 0.0 **** 0.0
12505 O 42.52329 2.479327 28.507692 O 0.0 **** 0.0
12506 H 42.618129 1.585692 28.068961 H 0.0 **** 0.0
12507 H 41.608203 2.561276 28.902612 H 0.0 **** 0.0
12508 O 21.046178 6.967029 46.508381 O 0.0 **** 0.0
12509 H 20.766989 7.751265 47.06254 H 0.0 **** 0.0
12510 H 20.254515 6.611212 46.011665 H 0.0 **** 0.0
12511 O 48.030165 27.40107 48.024222 O 0.0 **** 0.0
12512 H 47.841632 28.373613 47.887551 H 0.0 **** 0.0
12513 H 47.173202 26.886992 47.986793 H 0.0 **** 0.0
12514 O 47.675251 18.566182 6.916346 O 0.0 **** 0.0
12515 H 47.951412 17.799375 7.495832 H 0.0 **** 0.0
12516 H 48.000011 19.422041 7.318962 H 0.0 **** 0.0
12517 O 14.185896 11.37152 0.731365 O 0.0 **** 0.0
12518 H 13.690635 11.307076 1.597752 H 0.0 **** 0.0
12519 H 13.544832 11.593947 -0.003228 H 0.0 **** 0.0
12520 O 4.407334 20.614303 17.179186 O 0.0 **** 0.0
12521 H 3.485758 20.936152 17.396382 H 0.0 **** 0.0
12522 H 5.022645 21.398029 17.09416 H 0.0 **** 0.0
12523 O 47.443456 11.369315 11.692965 O 0.0 **** 0.0
12524 H 47.730589 10.60598 12.271701 H 0.0 **** 0.0
12525 H 47.746297 11.207715 10.753691 H 0.0 **** 0.0
12526 O 42.634472 34.028348 14.870165 O 0.0 **** 0.0
12527 H 41.783462 34.277162 14.407632 H 0.0 **** 0.0
12528 H 42.431439 33.418291 15.63611 H 0.0 **** 0.0
12529 O 5.214125 18.918455 47.085581 O 0.0 **** 0.0
12530 H 5.46577 19.288554 47.979876 H 0.0 **** 0.0
12531 H 5.017257 17.94185 47.172465 H 0.0 **** 0.0
12532 O 15.635757 2.244205 28.988249 O 0.0 **** 0.0
12533 H 16.348325 2.501465 29.641034 H 0.0 **** 0.0
12534 H 14.757182 2.180853 29.461699 H 0.0 **** 0.0
@<TRIPOS>BOND
1 1 2 1
2 1 3 1
3 4 5 1
4 4 6 1
5 7 8 1
6 7 9 1
7 10 11 1
8 10 12 1
9 13 14 1
10 13 15 1
11 16 17 1
12 16 18 1
13 19 20 1
14 19 21 1
15 22 23 1
16 22 24 1
17 25 26 1
18 25 27 1
19 28 29 1
20 28 30 1
21 31 32 1
22 31 33 1
23 34 35 1
24 34 36 1
25 37 38 1
26 37 39 1
27 40 41 1
28 40 42 1
29 43 44 1
30 43 45 1
31 46 47 1
32 46 48 1
33 49 50 1
34 49 51 1
35 52 53 1
36 52 54 1
37 55 56 1
38 55 57 1
39 58 59 1
40 58 60 1
41 61 62 1
42 61 63 1
43 64 65 1
44 64 66 1
45 67 68 1
46 67 69 1
47 70 71 1
48 70 72 1
49 73 74 1
50 73 75 1
51 76 77 1
52 76 78 1
53 79 80 1
54 79 81 1
55 82 83 1
56 82 84 1
57 85 86 1
58 85 87 1
59 88 89 1
60 88 90 1
61 91 92 1
62 91 93 1
63 94 95 1
64 94 96 1
65 97 98 1
66 97 99 1
67 100 101 1
68 100 102 1
69 103 105 1
70 103 104 1
71 106 107 1
72 106 108 1
73 109 110 1
74 109 111 1
75 112 113 1
76 112 114 1
77 115 116 1
78 115 117 1
79 118 119 1
80 118 120 1
81 121 122 1
82 121 123 1
83 124 125 1
84 124 126 1
85 127 128 1
86 127 129 1
87 130 131 1
88 130 132 1
89 133 134 1
90 133 135 1
91 136 137 1
92 136 138 1
93 139 140 1
94 139 141 1
95 142 143 1
96 142 144 1
97 145 146 1
98 145 147 1
99 148 150 1
100 148 149 1
101 151 152 1
102 151 153 1
103 154 155 1
104 154 156 1
105 157 158 1
106 157 159 1
107 160 161 1
108 160 162 1
109 163 164 1
110 163 165 1
111 166 167 1
112 166 168 1
113 169 170 1
114 169 171 1
115 172 173 1
116 172 174 1
117 175 176 1
118 175 177 1
119 178 179 1
120 178 180 1
121 181 182 1
122 181 183 1
123 184 185 1
124 184 186 1
125 187 188 1
126 187 189 1
127 190 191 1
128 190 192 1
129 193 194 1
130 193 195 1
131 196 197 1
132 196 198 1
133 199 200 1
134 199 201 1
135 202 203 1
136 202 204 1
137 205 206 1
138 205 207 1
139 208 209 1
140 208 210 1
141 211 212 1
142 211 213 1
143 214 215 1
144 214 216 1
145 217 218 1
146 217 219 1
147 220 221 1
148 220 222 1
149 223 224 1
150 223 225 1
151 226 227 1
152 226 228 1
153 229 230 1
154 229 231 1
155 232 233 1
156 232 234 1
157 235 236 1
158 235 237 1
159 238 239 1
160 238 240 1
161 241 242 1
162 241 243 1
163 244 245 1
164 244 246 1
165 247 248 1
166 247 249 1
167 250 251 1
168 250 252 1
169 253 254 1
170 253 255 1
171 256 257 1
172 256 258 1
173 259 260 1
174 259 261 1
175 262 263 1
176 262 264 1
177 265 266 1
178 265 267 1
179 268 269 1
180 268 270 1
181 271 272 1
182 271 273 1
183 274 275 1
184 274 276 1
185 277 278 1
186 277 279 1
187 280 281 1
188 280 282 1
189 283 284 1
190 283 285 1
191 286 287 1
192 286 288 1
193 289 290 1
194 289 291 1
195 292 293 1
196 292 294 1
197 295 296 1
198 295 297 1
199 298 299 1
200 298 300 1
201 301 302 1
202 301 303 1
203 304 305 1
204 304 306 1
205 307 308 1
206 307 309 1
207 310 311 1
208 310 312 1
209 313 314 1
210 313 315 1
211 316 317 1
212 316 318 1
213 319 320 1
214 319 321 1
215 322 323 1
216 322 324 1
217 325 326 1
218 325 327 1
219 328 329 1
220 328 330 1
221 331 332 1
222 331 333 1
223 334 335 1
224 334 336 1
225 337 338 1
226 337 339 1
227 340 341 1
228 340 342 1
229 343 344 1
230 343 345 1
231 346 347 1
232 346 348 1
233 349 350 1
234 349 351 1
235 352 353 1
236 352 354 1
237 355 356 1
238 355 357 1
239 358 359 1
240 358 360 1
241 361 362 1
242 361 363 1
243 364 365 1
244 364 366 1
245 367 368 1
246 367 369 1
247 370 371 1
248 370 372 1
249 373 374 1
250 373 375 1
251 376 377 1
252 376 378 1
253 379 380 1
254 379 381 1
255 382 383 1
256 382 384 1
257 385 386 1
258 385 387 1
259 388 389 1
260 388 390 1
261 391 392 1
262 391 393 1
263 394 395 1
264 394 396 1
265 397 398 1
266 397 399 1
267 400 401 1
268 400 402 1
269 403 404 1
270 403 405 1
271 406 407 1
272 406 408 1
273 409 410 1
274 409 411 1
275 412 413 1
276 412 414 1
277 415 416 1
278 415 417 1
279 418 419 1
280 418 420 1
281 421 422 1
282 421 423 1
283 424 425 1
284 424 426 1
285 427 428 1
286 427 429 1
287 430 431 1
288 430 432 1
289 433 434 1
290 433 435 1
291 436 437 1
292 436 438 1
293 439 440 1
294 439 441 1
295 442 443 1
296 442 444 1
297 445 446 1
298 445 447 1
299 448 449 1
300 448 450 1
301 451 452 1
302 451 453 1
303 454 455 1
304 454 456 1
305 457 458 1
306 457 459 1
307 460 461 1
308 460 462 1
309 463 464 1
310 463 465 1
311 466 467 1
312 466 468 1
313 469 470 1
314 469 471 1
315 472 473 1
316 472 474 1
317 475 476 1
318 475 477 1
319 478 479 1
320 478 480 1
321 481 482 1
322 481 483 1
323 484 485 1
324 484 486 1
325 487 488 1
326 487 489 1
327 490 491 1
328 490 492 1
329 493 494 1
330 493 495 1
331 496 497 1
332 496 498 1
333 499 500 1
334 499 501 1
335 502 503 1
336 502 504 1
337 505 506 1
338 505 507 1
339 508 509 1
340 508 510 1
341 511 512 1
342 511 513 1
343 514 515 1
344 514 516 1
345 517 518 1
346 517 519 1
347 520 521 1
348 520 522 1
349 523 524 1
350 523 525 1
351 526 527 1
352 526 528 1
353 529 530 1
354 529 531 1
355 532 533 1
356 532 534 1
357 535 536 1
358 535 537 1
359 538 539 1
360 538 540 1
361 541 542 1
362 541 543 1
363 544 545 1
364 544 546 1
365 547 548 1
366 547 549 1
367 550 551 1
368 550 552 1
369 553 554 1
370 553 555 1
371 556 557 1
372 556 558 1
373 559 560 1
374 559 561 1
375 562 563 1
376 562 564 1
377 565 566 1
378 565 567 1
379 568 569 1
380 568 570 1
381 571 572 1
382 571 573 1
383 574 575 1
384 574 576 1
385 577 578 1
386 577 579 1
387 580 581 1
388 580 582 1
389 583 584 1
390 583 585 1
391 586 587 1
392 586 588 1
393 589 590 1
394 589 591 1
395 592 593 1
396 592 594 1
397 595 596 1
398 595 597 1
399 598 599 1
400 598 600 1
401 601 602 1
402 601 603 1
403 604 605 1
404 604 606 1
405 607 608 1
406 607 609 1
407 610 611 1
408 610 612 1
409 613 614 1
410 613 615 1
411 616 617 1
412 616 618 1
413 619 620 1
414 619 621 1
415 622 623 1
416 622 624 1
417 625 626 1
418 625 627 1
419 628 629 1
420 628 630 1
421 631 632 1
422 631 633 1
423 634 635 1
424 634 636 1
425 637 638 1
426 637 639 1
427 640 641 1
428 640 642 1
429 643 644 1
430 643 645 1
431 646 647 1
432 646 648 1
433 649 650 1
434 649 651 1
435 652 653 1
436 652 654 1
437 655 656 1
438 655 657 1
439 658 659 1
440 658 660 1
441 661 662 1
442 661 663 1
443 664 665 1
444 664 666 1
445 667 668 1
446 667 669 1
447 670 671 1
448 670 672 1
449 673 674 1
450 673 675 1
451 676 677 1
452 676 678 1
453 679 680 1
454 679 681 1
455 682 683 1
456 682 684 1
457 685 686 1
458 685 687 1
459 688 689 1
460 688 690 1
461 691 692 1
462 691 693 1
463 694 695 1
464 694 696 1
465 697 698 1
466 697 699 1
467 700 701 1
468 700 702 1
469 703 704 1
470 703 705 1
471 706 707 1
472 706 708 1
473 709 710 1
474 709 711 1
475 712 713 1
476 712 714 1
477 715 716 1
478 715 717 1
479 718 719 1
480 718 720 1
481 721 722 1
482 721 723 1
483 724 725 1
484 724 726 1
485 727 728 1
486 727 729 1
487 730 731 1
488 730 732 1
489 733 734 1
490 733 735 1
491 736 737 1
492 736 738 1
493 739 740 1
494 739 741 1
495 742 743 1
496 742 744 1
497 745 746 1
498 745 747 1
499 748 749 1
500 748 750 1
501 751 752 1
502 751 753 1
503 754 755 1
504 754 756 1
505 757 758 1
506 757 759 1
507 760 761 1
508 760 762 1
509 763 764 1
510 763 765 1
511 766 767 1
512 766 768 1
513 769 770 1
514 769 771 1
515 772 773 1
516 772 774 1
517 775 776 1
518 775 777 1
519 778 779 1
520 778 780 1
521 781 782 1
522 781 783 1
523 784 785 1
524 784 786 1
525 787 788 1
526 787 789 1
527 790 791 1
528 790 792 1
529 793 794 1
530 793 795 1
531 796 797 1
532 796 798 1
533 799 800 1
534 799 801 1
535 802 803 1
536 802 804 1
537 805 806 1
538 805 807 1
539 808 809 1
540 808 810 1
541 811 812 1
542 811 813 1
543 814 815 1
544 814 816 1
545 817 818 1
546 817 819 1
547 820 821 1
548 820 822 1
549 823 824 1
550 823 825 1
551 826 827 1
552 826 828 1
553 829 830 1
554 829 831 1
555 832 833 1
556 832 834 1
557 835 836 1
558 835 837 1
559 838 839 1
560 838 840 1
561 841 842 1
562 841 843 1
563 844 845 1
564 844 846 1
565 847 848 1
566 847 849 1
567 850 851 1
568 850 852 1
569 853 854 1
570 853 855 1
571 856 857 1
572 856 858 1
573 859 860 1
574 859 861 1
575 862 863 1
576 862 864 1
577 865 866 1
578 865 867 1
579 868 869 1
580 868 870 1
581 871 872 1
582 871 873 1
583 874 875 1
584 874 876 1
585 877 878 1
586 877 879 1
587 880 881 1
588 880 882 1
589 883 884 1
590 883 885 1
591 886 887 1
592 886 888 1
593 889 890 1
594 889 891 1
595 892 893 1
596 892 894 1
597 895 896 1
598 895 897 1
599 898 899 1
600 898 900 1
601 901 902 1
602 901 903 1
603 904 906 1
604 904 905 1
605 907 908 1
606 907 909 1
607 910 911 1
608 910 912 1
609 913 914 1
610 913 915 1
611 916 917 1
612 916 918 1
613 919 920 1
614 919 921 1
615 922 923 1
616 922 924 1
617 925 926 1
618 925 927 1
619 928 929 1
620 928 930 1
621 931 932 1
622 931 933 1
623 934 935 1
624 934 936 1
625 937 938 1
626 937 939 1
627 940 941 1
628 940 942 1
629 943 944 1
630 943 945 1
631 946 947 1
632 946 948 1
633 949 950 1
634 949 951 1
635 952 953 1
636 952 954 1
637 955 956 1
638 955 957 1
639 958 959 1
640 958 960 1
641 961 962 1
642 961 963 1
643 964 965 1
644 964 966 1
645 967 968 1
646 967 969 1
647 970 971 1
648 970 972 1
649 973 974 1
650 973 975 1
651 976 977 1
652 976 978 1
653 979 980 1
654 979 981 1
655 982 983 1
656 982 984 1
657 985 986 1
658 985 987 1
659 988 989 1
660 988 990 1
661 991 992 1
662 991 993 1
663 994 995 1
664 994 996 1
665 997 998 1
666 997 999 1
667 1000 1001 1
668 1000 1002 1
669 1003 1004 1
670 1003 1005 1
671 1006 1007 1
672 1006 1008 1
673 1009 1010 1
674 1009 1011 1
675 1012 1013 1
676 1012 1014 1
677 1015 1016 1
678 1015 1017 1
679 1018 1019 1
680 1018 1020 1
681 1021 1022 1
682 1021 1023 1
683 1024 1025 1
684 1024 1026 1
685 1027 1028 1
686 1027 1029 1
687 1030 1031 1
688 1030 1032 1
689 1033 1034 1
690 1033 1035 1
691 1036 1037 1
692 1036 1038 1
693 1039 1040 1
694 1039 1041 1
695 1042 1043 1
696 1042 1044 1
697 1045 1046 1
698 1045 1047 1
699 1048 1049 1
700 1048 1050 1
701 1051 1052 1
702 1051 1053 1
703 1054 1055 1
704 1054 1056 1
705 1057 1058 1
706 1057 1059 1
707 1060 1061 1
708 1060 1062 1
709 1063 1064 1
710 1063 1065 1
711 1066 1067 1
712 1066 1068 1
713 1069 1070 1
714 1069 1071 1
715 1072 1073 1
716 1072 1074 1
717 1075 1076 1
718 1075 1077 1
719 1078 1079 1
720 1078 1080 1
721 1081 1082 1
722 1081 1083 1
723 1084 1085 1
724 1084 1086 1
725 1087 1088 1
726 1087 1089 1
727 1090 1091 1
728 1090 1092 1
729 1093 1094 1
730 1093 1095 1
731 1096 1097 1
732 1096 1098 1
733 1099 1100 1
734 1099 1101 1
735 1102 1103 1
736 1102 1104 1
737 1105 1106 1
738 1105 1107 1
739 1108 1109 1
740 1108 1110 1
741 1111 1112 1
742 1111 1113 1
743 1114 1115 1
744 1114 1116 1
745 1117 1118 1
746 1117 1119 1
747 1120 1121 1
748 1120 1122 1
749 1123 1124 1
750 1123 1125 1
751 1126 1127 1
752 1126 1128 1
753 1129 1130 1
754 1129 1131 1
755 1132 1133 1
756 1132 1134 1
757 1135 1136 1
758 1135 1137 1
759 1138 1139 1
760 1138 1140 1
761 1141 1142 1
762 1141 1143 1
763 1144 1145 1
764 1144 1146 1
765 1147 1148 1
766 1147 1149 1
767 1150 1151 1
768 1150 1152 1
769 1153 1154 1
770 1153 1155 1
771 1156 1157 1
772 1156 1158 1
773 1159 1160 1
774 1159 1161 1
775 1162 1163 1
776 1162 1164 1
777 1165 1166 1
778 1165 1167 1
779 1168 1169 1
780 1168 1170 1
781 1171 1172 1
782 1171 1173 1
783 1174 1175 1
784 1174 1176 1
785 1177 1178 1
786 1177 1179 1
787 1180 1181 1
788 1180 1182 1
789 1183 1184 1
790 1183 1185 1
791 1186 1187 1
792 1186 1188 1
793 1189 1190 1
794 1189 1191 1
795 1192 1193 1
796 1192 1194 1
797 1195 1196 1
798 1195 1197 1
799 1198 1199 1
800 1198 1200 1
801 1201 1202 1
802 1201 1203 1
803 1204 1205 1
804 1204 1206 1
805 1207 1208 1
806 1207 1209 1
807 1210 1211 1
808 1210 1212 1
809 1213 1214 1
810 1213 1215 1
811 1216 1217 1
812 1216 1218 1
813 1219 1220 1
814 1219 1221 1
815 1222 1223 1
816 1222 1224 1
817 1225 1226 1
818 1225 1227 1
819 1228 1229 1
820 1228 1230 1
821 1231 1232 1
822 1231 1233 1
823 1234 1235 1
824 1234 1236 1
825 1237 1238 1
826 1237 1239 1
827 1240 1241 1
828 1240 1242 1
829 1243 1244 1
830 1243 1245 1
831 1246 1247 1
832 1246 1248 1
833 1249 1250 1
834 1249 1251 1
835 1252 1253 1
836 1252 1254 1
837 1255 1256 1
838 1255 1257 1
839 1258 1259 1
840 1258 1260 1
841 1261 1262 1
842 1261 1263 1
843 1264 1265 1
844 1264 1266 1
845 1267 1268 1
846 1267 1269 1
847 1270 1271 1
848 1270 1272 1
849 1273 1274 1
850 1273 1275 1
851 1276 1277 1
852 1276 1278 1
853 1279 1280 1
854 1279 1281 1
855 1282 1283 1
856 1282 1284 1
857 1285 1286 1
858 1285 1287 1
859 1288 1289 1
860 1288 1290 1
861 1291 1292 1
862 1291 1293 1
863 1294 1295 1
864 1294 1296 1
865 1297 1298 1
866 1297 1299 1
867 1300 1301 1
868 1300 1302 1
869 1303 1304 1
870 1303 1305 1
871 1306 1307 1
872 1306 1308 1
873 1309 1310 1
874 1309 1311 1
875 1312 1313 1
876 1312 1314 1
877 1315 1316 1
878 1315 1317 1
879 1318 1319 1
880 1318 1320 1
881 1321 1322 1
882 1321 1323 1
883 1324 1325 1
884 1324 1326 1
885 1327 1328 1
886 1327 1329 1
887 1330 1331 1
888 1330 1332 1
889 1333 1334 1
890 1333 1335 1
891 1336 1337 1
892 1336 1338 1
893 1339 1340 1
894 1339 1341 1
895 1342 1343 1
896 1342 1344 1
897 1345 1346 1
898 1345 1347 1
899 1348 1349 1
900 1348 1350 1
901 1351 1352 1
902 1351 1353 1
903 1354 1355 1
904 1354 1356 1
905 1357 1358 1
906 1357 1359 1
907 1360 1361 1
908 1360 1362 1
909 1363 1364 1
910 1363 1365 1
911 1366 1367 1
912 1366 1368 1
913 1369 1370 1
914 1369 1371 1
915 1372 1373 1
916 1372 1374 1
917 1375 1376 1
918 1375 1377 1
919 1378 1379 1
920 1378 1380 1
921 1381 1382 1
922 1381 1383 1
923 1384 1385 1
924 1384 1386 1
925 1387 1388 1
926 1387 1389 1
927 1390 1391 1
928 1390 1392 1
929 1393 1394 1
930 1393 1395 1
931 1396 1397 1
932 1396 1398 1
933 1399 1400 1
934 1399 1401 1
935 1402 1403 1
936 1402 1404 1
937 1405 1406 1
938 1405 1407 1
939 1408 1409 1
940 1408 1410 1
941 1411 1412 1
942 1411 1413 1
943 1414 1415 1
944 1414 1416 1
945 1417 1418 1
946 1417 1419 1
947 1420 1421 1
948 1420 1422 1
949 1423 1424 1
950 1423 1425 1
951 1426 1427 1
952 1426 1428 1
953 1429 1430 1
954 1429 1431 1
955 1432 1433 1
956 1432 1434 1
957 1435 1436 1
958 1435 1437 1
959 1438 1439 1
960 1438 1440 1
961 1441 1442 1
962 1441 1443 1
963 1444 1445 1
964 1444 1446 1
965 1447 1448 1
966 1447 1449 1
967 1450 1451 1
968 1450 1452 1
969 1453 1454 1
970 1453 1455 1
971 1456 1457 1
972 1456 1458 1
973 1459 1460 1
974 1459 1461 1
975 1462 1463 1
976 1462 1464 1
977 1465 1466 1
978 1465 1467 1
979 1468 1469 1
980 1468 1470 1
981 1471 1472 1
982 1471 1473 1
983 1474 1475 1
984 1474 1476 1
985 1477 1478 1
986 1477 1479 1
987 1480 1481 1
988 1480 1482 1
989 1483 1484 1
990 1483 1485 1
991 1486 1487 1
992 1486 1488 1
993 1489 1490 1
994 1489 1491 1
995 1492 1493 1
996 1492 1494 1
997 1495 1496 1
998 1495 1497 1
999 1498 1499 1
1000 1498 1500 1
1001 1501 1502 1
1002 1501 1503 1
1003 1504 1505 1
1004 1504 1506 1
1005 1507 1508 1
1006 1507 1509 1
1007 1510 1511 1
1008 1510 1512 1
1009 1513 1514 1
1010 1513 1515 1
1011 1516 1517 1
1012 1516 1518 1
1013 1519 1520 1
1014 1519 1521 1
1015 1522 1523 1
1016 1522 1524 1
1017 1525 1526 1
1018 1525 1527 1
1019 1528 1529 1
1020 1528 1530 1
1021 1531 1532 1
1022 1531 1533 1
1023 1534 1535 1
1024 1534 1536 1
1025 1537 1538 1
1026 1537 1539 1
1027 1540 1541 1
1028 1540 1542 1
1029 1543 1544 1
1030 1543 1545 1
1031 1546 1547 1
1032 1546 1548 1
1033 1549 1550 1
1034 1549 1551 1
1035 1552 1553 1
1036 1552 1554 1
1037 1555 1556 1
1038 1555 1557 1
1039 1558 1559 1
1040 1558 1560 1
1041 1561 1562 1
1042 1561 1563 1
1043 1564 1565 1
1044 1564 1566 1
1045 1567 1568 1
1046 1567 1569 1
1047 1570 1571 1
1048 1570 1572 1
1049 1573 1574 1
1050 1573 1575 1
1051 1576 1577 1
1052 1576 1578 1
1053 1579 1580 1
1054 1579 1581 1
1055 1582 1583 1
1056 1582 1584 1
1057 1585 1586 1
1058 1585 1587 1
1059 1588 1589 1
1060 1588 1590 1
1061 1591 1592 1
1062 1591 1593 1
1063 1594 1595 1
1064 1594 1596 1
1065 1597 1598 1
1066 1597 1599 1
1067 1600 1601 1
1068 1600 1602 1
1069 1603 1604 1
1070 1603 1605 1
1071 1606 1607 1
1072 1606 1608 1
1073 1609 1610 1
1074 1609 1611 1
1075 1612 1613 1
1076 1612 1614 1
1077 1615 1616 1
1078 1615 1617 1
1079 1618 1619 1
1080 1618 1620 1
1081 1621 1622 1
1082 1621 1623 1
1083 1624 1625 1
1084 1624 1626 1
1085 1627 1628 1
1086 1627 1629 1
1087 1630 1631 1
1088 1630 1632 1
1089 1633 1634 1
1090 1633 1635 1
1091 1636 1637 1
1092 1636 1638 1
1093 1639 1640 1
1094 1639 1641 1
1095 1642 1643 1
1096 1642 1644 1
1097 1645 1646 1
1098 1645 1647 1
1099 1648 1649 1
1100 1648 1650 1
1101 1651 1652 1
1102 1651 1653 1
1103 1654 1655 1
1104 1654 1656 1
1105 1657 1658 1
1106 1657 1659 1
1107 1660 1661 1
1108 1660 1662 1
1109 1663 1664 1
1110 1663 1665 1
1111 1666 1667 1
1112 1666 1668 1
1113 1669 1670 1
1114 1669 1671 1
1115 1672 1673 1
1116 1672 1674 1
1117 1675 1676 1
1118 1675 1677 1
1119 1678 1679 1
1120 1678 1680 1
1121 1681 1682 1
1122 1681 1683 1
1123 1684 1685 1
1124 1684 1686 1
1125 1687 1688 1
1126 1687 1689 1
1127 1690 1691 1
1128 1690 1692 1
1129 1693 1694 1
1130 1693 1695 1
1131 1696 1697 1
1132 1696 1698 1
1133 1699 1700 1
1134 1699 1701 1
1135 1702 1703 1
1136 1702 1704 1
1137 1705 1706 1
1138 1705 1707 1
1139 1708 1709 1
1140 1708 1710 1
1141 1711 1712 1
1142 1711 1713 1
1143 1714 1715 1
1144 1714 1716 1
1145 1717 1719 1
1146 1717 1718 1
1147 1720 1721 1
1148 1720 1722 1
1149 1723 1724 1
1150 1723 1725 1
1151 1726 1727 1
1152 1726 1728 1
1153 1729 1730 1
1154 1729 1731 1
1155 1732 1733 1
1156 1732 1734 1
1157 1735 1736 1
1158 1735 1737 1
1159 1738 1739 1
1160 1738 1740 1
1161 1741 1742 1
1162 1741 1743 1
1163 1744 1745 1
1164 1744 1746 1
1165 1747 1748 1
1166 1747 1749 1
1167 1750 1751 1
1168 1750 1752 1
1169 1753 1754 1
1170 1753 1755 1
1171 1756 1757 1
1172 1756 1758 1
1173 1759 1760 1
1174 1759 1761 1
1175 1762 1763 1
1176 1762 1764 1
1177 1765 1766 1
1178 1765 1767 1
1179 1768 1769 1
1180 1768 1770 1
1181 1771 1772 1
1182 1771 1773 1
1183 1774 1775 1
1184 1774 1776 1
1185 1777 1778 1
1186 1777 1779 1
1187 1780 1781 1
1188 1780 1782 1
1189 1783 1784 1
1190 1783 1785 1
1191 1786 1787 1
1192 1786 1788 1
1193 1789 1790 1
1194 1789 1791 1
1195 1792 1793 1
1196 1792 1794 1
1197 1795 1796 1
1198 1795 1797 1
1199 1798 1799 1
1200 1798 1800 1
1201 1801 1802 1
1202 1801 1803 1
1203 1804 1805 1
1204 1804 1806 1
1205 1807 1808 1
1206 1807 1809 1
1207 1810 1811 1
1208 1810 1812 1
1209 1813 1814 1
1210 1813 1815 1
1211 1816 1817 1
1212 1816 1818 1
1213 1819 1820 1
1214 1819 1821 1
1215 1822 1823 1
1216 1822 1824 1
1217 1825 1826 1
1218 1825 1827 1
1219 1828 1829 1
1220 1828 1830 1
1221 1831 1832 1
1222 1831 1833 1
1223 1834 1835 1
1224 1834 1836 1
1225 1837 1838 1
1226 1837 1839 1
1227 1840 1841 1
1228 1840 1842 1
1229 1843 1844 1
1230 1843 1845 1
1231 1846 1847 1
1232 1846 1848 1
1233 1849 1850 1
1234 1849 1851 1
1235 1852 1853 1
1236 1852 1854 1
1237 1855 1856 1
1238 1855 1857 1
1239 1858 1859 1
1240 1858 1860 1
1241 1861 1862 1
1242 1861 1863 1
1243 1864 1865 1
1244 1864 1866 1
1245 1867 1868 1
1246 1867 1869 1
1247 1870 1871 1
1248 1870 1872 1
1249 1873 1874 1
1250 1873 1875 1
1251 1876 1877 1
1252 1876 1878 1
1253 1879 1880 1
1254 1879 1881 1
1255 1882 1883 1
1256 1882 1884 1
1257 1885 1886 1
1258 1885 1887 1
1259 1888 1889 1
1260 1888 1890 1
1261 1891 1892 1
1262 1891 1893 1
1263 1894 1895 1
1264 1894 1896 1
1265 1897 1898 1
1266 1897 1899 1
1267 1900 1901 1
1268 1900 1902 1
1269 1903 1904 1
1270 1903 1905 1
1271 1906 1907 1
1272 1906 1908 1
1273 1909 1910 1
1274 1909 1911 1
1275 1912 1913 1
1276 1912 1914 1
1277 1915 1916 1
1278 1915 1917 1
1279 1918 1919 1
1280 1918 1920 1
1281 1921 1922 1
1282 1921 1923 1
1283 1924 1925 1
1284 1924 1926 1
1285 1927 1928 1
1286 1927 1929 1
1287 1930 1931 1
1288 1930 1932 1
1289 1933 1934 1
1290 1933 1935 1
1291 1936 1937 1
1292 1936 1938 1
1293 1939 1940 1
1294 1939 1941 1
1295 1942 1943 1
1296 1942 1944 1
1297 1945 1946 1
1298 1945 1947 1
1299 1948 1949 1
1300 1948 1950 1
1301 1951 1952 1
1302 1951 1953 1
1303 1954 1955 1
1304 1954 1956 1
1305 1957 1958 1
1306 1957 1959 1
1307 1960 1961 1
1308 1960 1962 1
1309 1963 1964 1
1310 1963 1965 1
1311 1966 1967 1
1312 1966 1968 1
1313 1969 1970 1
1314 1969 1971 1
1315 1972 1973 1
1316 1972 1974 1
1317 1975 1976 1
1318 1975 1977 1
1319 1978 1979 1
1320 1978 1980 1
1321 1981 1982 1
1322 1981 1983 1
1323 1984 1985 1
1324 1984 1986 1
1325 1987 1988 1
1326 1987 1989 1
1327 1990 1991 1
1328 1990 1992 1
1329 1993 1994 1
1330 1993 1995 1
1331 1996 1997 1
1332 1996 1998 1
1333 1999 2000 1
1334 1999 2001 1
1335 2002 2003 1
1336 2002 2004 1
1337 2005 2006 1
1338 2005 2007 1
1339 2008 2009 1
1340 2008 2010 1
1341 2011 2012 1
1342 2011 2013 1
1343 2014 2015 1
1344 2014 2016 1
1345 2017 2018 1
1346 2017 2019 1
1347 2020 2021 1
1348 2020 2022 1
1349 2023 2024 1
1350 2023 2025 1
1351 2026 2027 1
1352 2026 2028 1
1353 2029 2030 1
1354 2029 2031 1
1355 2032 2033 1
1356 2032 2034 1
1357 2035 2036 1
1358 2035 2037 1
1359 2038 2039 1
1360 2038 2040 1
1361 2041 2042 1
1362 2041 2043 1
1363 2044 2045 1
1364 2044 2046 1
1365 2047 2048 1
1366 2047 2049 1
1367 2050 2051 1
1368 2050 2052 1
1369 2053 2054 1
1370 2053 2055 1
1371 2056 2057 1
1372 2056 2058 1
1373 2059 2060 1
1374 2059 2061 1
1375 2062 2063 1
1376 2062 2064 1
1377 2065 2066 1
1378 2065 2067 1
1379 2068 2069 1
1380 2068 2070 1
1381 2071 2072 1
1382 2071 2073 1
1383 2074 2075 1
1384 2074 2076 1
1385 2077 2078 1
1386 2077 2079 1
1387 2080 2081 1
1388 2080 2082 1
1389 2083 2084 1
1390 2083 2085 1
1391 2086 2087 1
1392 2086 2088 1
1393 2089 2090 1
1394 2089 2091 1
1395 2092 2093 1
1396 2092 2094 1
1397 2095 2096 1
1398 2095 2097 1
1399 2098 2099 1
1400 2098 2100 1
1401 2101 2102 1
1402 2101 2103 1
1403 2104 2105 1
1404 2104 2106 1
1405 2107 2108 1
1406 2107 2109 1
1407 2110 2111 1
1408 2110 2112 1
1409 2113 2114 1
1410 2113 2115 1
1411 2116 2117 1
1412 2116 2118 1
1413 2119 2120 1
1414 2119 2121 1
1415 2122 2123 1
1416 2122 2124 1
1417 2125 2126 1
1418 2125 2127 1
1419 2128 2129 1
1420 2128 2130 1
1421 2131 2132 1
1422 2131 2133 1
1423 2134 2135 1
1424 2134 2136 1
1425 2137 2138 1
1426 2137 2139 1
1427 2140 2141 1
1428 2140 2142 1
1429 2143 2144 1
1430 2143 2145 1
1431 2146 2147 1
1432 2146 2148 1
1433 2149 2150 1
1434 2149 2151 1
1435 2152 2153 1
1436 2152 2154 1
1437 2155 2156 1
1438 2155 2157 1
1439 2158 2159 1
1440 2158 2160 1
1441 2161 2162 1
1442 2161 2163 1
1443 2164 2165 1
1444 2164 2166 1
1445 2167 2168 1
1446 2167 2169 1
1447 2170 2171 1
1448 2170 2172 1
1449 2173 2174 1
1450 2173 2175 1
1451 2176 2177 1
1452 2176 2178 1
1453 2179 2180 1
1454 2179 2181 1
1455 2182 2183 1
1456 2182 2184 1
1457 2185 2186 1
1458 2185 2187 1
1459 2188 2189 1
1460 2188 2190 1
1461 2191 2192 1
1462 2191 2193 1
1463 2194 2195 1
1464 2194 2196 1
1465 2197 2198 1
1466 2197 2199 1
1467 2200 2201 1
1468 2200 2202 1
1469 2203 2204 1
1470 2203 2205 1
1471 2206 2207 1
1472 2206 2208 1
1473 2209 2210 1
1474 2209 2211 1
1475 2212 2213 1
1476 2212 2214 1
1477 2215 2216 1
1478 2215 2217 1
1479 2218 2219 1
1480 2218 2220 1
1481 2221 2222 1
1482 2221 2223 1
1483 2224 2225 1
1484 2224 2226 1
1485 2227 2228 1
1486 2227 2229 1
1487 2230 2231 1
1488 2230 2232 1
1489 2233 2234 1
1490 2233 2235 1
1491 2236 2237 1
1492 2236 2238 1
1493 2239 2240 1
1494 2239 2241 1
1495 2242 2243 1
1496 2242 2244 1
1497 2245 2246 1
1498 2245 2247 1
1499 2248 2249 1
1500 2248 2250 1
1501 2251 2252 1
1502 2251 2253 1
1503 2254 2255 1
1504 2254 2256 1
1505 2257 2258 1
1506 2257 2259 1
1507 2260 2261 1
1508 2260 2262 1
1509 2263 2264 1
1510 2263 2265 1
1511 2266 2267 1
1512 2266 2268 1
1513 2269 2270 1
1514 2269 2271 1
1515 2272 2273 1
1516 2272 2274 1
1517 2275 2276 1
1518 2275 2277 1
1519 2278 2279 1
1520 2278 2280 1
1521 2281 2282 1
1522 2281 2283 1
1523 2284 2285 1
1524 2284 2286 1
1525 2287 2288 1
1526 2287 2289 1
1527 2290 2291 1
1528 2290 2292 1
1529 2293 2294 1
1530 2293 2295 1
1531 2296 2297 1
1532 2296 2298 1
1533 2299 2300 1
1534 2299 2301 1
1535 2302 2303 1
1536 2302 2304 1
1537 2305 2306 1
1538 2305 2307 1
1539 2308 2309 1
1540 2308 2310 1
1541 2311 2312 1
1542 2311 2313 1
1543 2314 2315 1
1544 2314 2316 1
1545 2317 2318 1
1546 2317 2319 1
1547 2320 2321 1
1548 2320 2322 1
1549 2323 2324 1
1550 2323 2325 1
1551 2326 2327 1
1552 2326 2328 1
1553 2329 2330 1
1554 2329 2331 1
1555 2332 2333 1
1556 2332 2334 1
1557 2335 2336 1
1558 2335 2337 1
1559 2338 2339 1
1560 2338 2340 1
1561 2341 2342 1
1562 2341 2343 1
1563 2344 2345 1
1564 2344 2346 1
1565 2347 2348 1
1566 2347 2349 1
1567 2350 2351 1
1568 2350 2352 1
1569 2353 2354 1
1570 2353 2355 1
1571 2356 2357 1
1572 2356 2358 1
1573 2359 2360 1
1574 2359 2361 1
1575 2362 2363 1
1576 2362 2364 1
1577 2365 2366 1
1578 2365 2367 1
1579 2368 2369 1
1580 2368 2370 1
1581 2371 2372 1
1582 2371 2373 1
1583 2374 2375 1
1584 2374 2376 1
1585 2377 2378 1
1586 2377 2379 1
1587 2380 2381 1
1588 2380 2382 1
1589 2383 2384 1
1590 2383 2385 1
1591 2386 2387 1
1592 2386 2388 1
1593 2389 2390 1
1594 2389 2391 1
1595 2392 2393 1
1596 2392 2394 1
1597 2395 2396 1
1598 2395 2397 1
1599 2398 2399 1
1600 2398 2400 1
1601 2401 2402 1
1602 2401 2403 1
1603 2404 2405 1
1604 2404 2406 1
1605 2407 2408 1
1606 2407 2409 1
1607 2410 2411 1
1608 2410 2412 1
1609 2413 2414 1
1610 2413 2415 1
1611 2416 2417 1
1612 2416 2418 1
1613 2419 2420 1
1614 2419 2421 1
1615 2422 2423 1
1616 2422 2424 1
1617 2425 2426 1
1618 2425 2427 1
1619 2428 2429 1
1620 2428 2430 1
1621 2431 2432 1
1622 2431 2433 1
1623 2434 2435 1
1624 2434 2436 1
1625 2437 2438 1
1626 2437 2439 1
1627 2440 2441 1
1628 2440 2442 1
1629 2443 2444 1
1630 2443 2445 1
1631 2446 2447 1
1632 2446 2448 1
1633 2449 2450 1
1634 2449 2451 1
1635 2452 2453 1
1636 2452 2454 1
1637 2455 2456 1
1638 2455 2457 1
1639 2458 2459 1
1640 2458 2460 1
1641 2461 2462 1
1642 2461 2463 1
1643 2464 2465 1
1644 2464 2466 1
1645 2467 2468 1
1646 2467 2469 1
1647 2470 2471 1
1648 2470 2472 1
1649 2473 2474 1
1650 2473 2475 1
1651 2476 2477 1
1652 2476 2478 1
1653 2479 2480 1
1654 2479 2481 1
1655 2482 2483 1
1656 2482 2484 1
1657 2485 2486 1
1658 2485 2487 1
1659 2488 2489 1
1660 2488 2490 1
1661 2491 2492 1
1662 2491 2493 1
1663 2494 2495 1
1664 2494 2496 1
1665 2497 2498 1
1666 2497 2499 1
1667 2500 2501 1
1668 2500 2502 1
1669 2503 2504 1
1670 2503 2505 1
1671 2506 2507 1
1672 2506 2508 1
1673 2509 2510 1
1674 2509 2511 1
1675 2512 2513 1
1676 2512 2514 1
1677 2515 2516 1
1678 2515 2517 1
1679 2518 2519 1
1680 2518 2520 1
1681 2521 2522 1
1682 2521 2523 1
1683 2524 2525 1
1684 2524 2526 1
1685 2527 2528 1
1686 2527 2529 1
1687 2530 2531 1
1688 2530 2532 1
1689 2533 2534 1
1690 2533 2535 1
1691 2536 2537 1
1692 2536 2538 1
1693 2539 2540 1
1694 2539 2541 1
1695 2542 2543 1
1696 2542 2544 1
1697 2545 2546 1
1698 2545 2547 1
1699 2548 2549 1
1700 2548 2550 1
1701 2551 2552 1
1702 2551 2553 1
1703 2554 2555 1
1704 2554 2556 1
1705 2557 2558 1
1706 2557 2559 1
1707 2560 2561 1
1708 2560 2562 1
1709 2563 2564 1
1710 2563 2565 1
1711 2566 2567 1
1712 2566 2568 1
1713 2569 2570 1
1714 2569 2571 1
1715 2572 2573 1
1716 2572 2574 1
1717 2575 2576 1
1718 2575 2577 1
1719 2578 2579 1
1720 2578 2580 1
1721 2581 2582 1
1722 2581 2583 1
1723 2584 2585 1
1724 2584 2586 1
1725 2587 2588 1
1726 2587 2589 1
1727 2590 2591 1
1728 2590 2592 1
1729 2593 2594 1
1730 2593 2595 1
1731 2596 2597 1
1732 2596 2598 1
1733 2599 2600 1
1734 2599 2601 1
1735 2602 2603 1
1736 2602 2604 1
1737 2605 2606 1
1738 2605 2607 1
1739 2608 2609 1
1740 2608 2610 1
1741 2611 2612 1
1742 2611 2613 1
1743 2614 2615 1
1744 2614 2616 1
1745 2617 2618 1
1746 2617 2619 1
1747 2620 2621 1
1748 2620 2622 1
1749 2623 2624 1
1750 2623 2625 1
1751 2626 2627 1
1752 2626 2628 1
1753 2629 2630 1
1754 2629 2631 1
1755 2632 2633 1
1756 2632 2634 1
1757 2635 2636 1
1758 2635 2637 1
1759 2638 2639 1
1760 2638 2640 1
1761 2641 2642 1
1762 2641 2643 1
1763 2644 2645 1
1764 2644 2646 1
1765 2647 2648 1
1766 2647 2649 1
1767 2650 2651 1
1768 2650 2652 1
1769 2653 2654 1
1770 2653 2655 1
1771 2656 2657 1
1772 2656 2658 1
1773 2659 2660 1
1774 2659 2661 1
1775 2662 2663 1
1776 2662 2664 1
1777 2665 2666 1
1778 2665 2667 1
1779 2668 2669 1
1780 2668 2670 1
1781 2671 2672 1
1782 2671 2673 1
1783 2674 2675 1
1784 2674 2676 1
1785 2677 2678 1
1786 2677 2679 1
1787 2680 2681 1
1788 2680 2682 1
1789 2683 2684 1
1790 2683 2685 1
1791 2686 2687 1
1792 2686 2688 1
1793 2689 2690 1
1794 2689 2691 1
1795 2692 2693 1
1796 2692 2694 1
1797 2695 2696 1
1798 2695 2697 1
1799 2698 2699 1
1800 2698 2700 1
1801 2701 2702 1
1802 2701 2703 1
1803 2704 2705 1
1804 2704 2706 1
1805 2707 2708 1
1806 2707 2709 1
1807 2710 2711 1
1808 2710 2712 1
1809 2713 2714 1
1810 2713 2715 1
1811 2716 2717 1
1812 2716 2718 1
1813 2719 2720 1
1814 2719 2721 1
1815 2722 2723 1
1816 2722 2724 1
1817 2725 2726 1
1818 2725 2727 1
1819 2728 2729 1
1820 2728 2730 1
1821 2731 2732 1
1822 2731 2733 1
1823 2734 2735 1
1824 2734 2736 1
1825 2737 2738 1
1826 2737 2739 1
1827 2740 2741 1
1828 2740 2742 1
1829 2743 2744 1
1830 2743 2745 1
1831 2746 2747 1
1832 2746 2748 1
1833 2749 2750 1
1834 2749 2751 1
1835 2752 2753 1
1836 2752 2754 1
1837 2755 2756 1
1838 2755 2757 1
1839 2758 2759 1
1840 2758 2760 1
1841 2761 2762 1
1842 2761 2763 1
1843 2764 2765 1
1844 2764 2766 1
1845 2767 2768 1
1846 2767 2769 1
1847 2770 2771 1
1848 2770 2772 1
1849 2773 2774 1
1850 2773 2775 1
1851 2776 2777 1
1852 2776 2778 1
1853 2779 2780 1
1854 2779 2781 1
1855 2782 2783 1
1856 2782 2784 1
1857 2785 2786 1
1858 2785 2787 1
1859 2788 2789 1
1860 2788 2790 1
1861 2791 2792 1
1862 2791 2793 1
1863 2794 2795 1
1864 2794 2796 1
1865 2797 2798 1
1866 2797 2799 1
1867 2800 2801 1
1868 2800 2802 1
1869 2803 2804 1
1870 2803 2805 1
1871 2806 2807 1
1872 2806 2808 1
1873 2809 2810 1
1874 2809 2811 1
1875 2812 2813 1
1876 2812 2814 1
1877 2815 2816 1
1878 2815 2817 1
1879 2818 2819 1
1880 2818 2820 1
1881 2821 2822 1
1882 2821 2823 1
1883 2824 2825 1
1884 2824 2826 1
1885 2827 2828 1
1886 2827 2829 1
1887 2830 2831 1
1888 2830 2832 1
1889 2833 2834 1
1890 2833 2835 1
1891 2836 2837 1
1892 2836 2838 1
1893 2839 2840 1
1894 2839 2841 1
1895 2842 2843 1
1896 2842 2844 1
1897 2845 2846 1
1898 2845 2847 1
1899 2848 2849 1
1900 2848 2850 1
1901 2851 2852 1
1902 2851 2853 1
1903 2854 2855 1
1904 2854 2856 1
1905 2857 2858 1
1906 2857 2859 1
1907 2860 2861 1
1908 2860 2862 1
1909 2863 2864 1
1910 2863 2865 1
1911 2866 2867 1
1912 2866 2868 1
1913 2869 2870 1
1914 2869 2871 1
1915 2872 2873 1
1916 2872 2874 1
1917 2875 2876 1
1918 2875 2877 1
1919 2878 2879 1
1920 2878 2880 1
1921 2881 2882 1
1922 2881 2883 1
1923 2884 2885 1
1924 2884 2886 1
1925 2887 2888 1
1926 2887 2889 1
1927 2890 2891 1
1928 2890 2892 1
1929 2893 2894 1
1930 2893 2895 1
1931 2896 2897 1
1932 2896 2898 1
1933 2899 2900 1
1934 2899 2901 1
1935 2902 2903 1
1936 2902 2904 1
1937 2905 2906 1
1938 2905 2907 1
1939 2908 2909 1
1940 2908 2910 1
1941 2911 2912 1
1942 2911 2913 1
1943 2914 2915 1
1944 2914 2916 1
1945 2917 2918 1
1946 2917 2919 1
1947 2920 2921 1
1948 2920 2922 1
1949 2923 2924 1
1950 2923 2925 1
1951 2926 2927 1
1952 2926 2928 1
1953 2929 2930 1
1954 2929 2931 1
1955 2932 2933 1
1956 2932 2934 1
1957 2935 2936 1
1958 2935 2937 1
1959 2938 2939 1
1960 2938 2940 1
1961 2941 2942 1
1962 2941 2943 1
1963 2944 2945 1
1964 2944 2946 1
1965 2947 2948 1
1966 2947 2949 1
1967 2950 2951 1
1968 2950 2952 1
1969 2953 2954 1
1970 2953 2955 1
1971 2956 2957 1
1972 2956 2958 1
1973 2959 2960 1
1974 2959 2961 1
1975 2962 2963 1
1976 2962 2964 1
1977 2965 2966 1
1978 2965 2967 1
1979 2968 2969 1
1980 2968 2970 1
1981 2971 2972 1
1982 2971 2973 1
1983 2974 2975 1
1984 2974 2976 1
1985 2977 2978 1
1986 2977 2979 1
1987 2980 2981 1
1988 2980 2982 1
1989 2983 2984 1
1990 2983 2985 1
1991 2986 2987 1
1992 2986 2988 1
1993 2989 2990 1
1994 2989 2991 1
1995 2992 2993 1
1996 2992 2994 1
1997 2995 2996 1
1998 2995 2997 1
1999 2998 2999 1
2000 2998 3000 1
2001 3001 3002 1
2002 3001 3003 1
2003 3004 3005 1
2004 3004 3006 1
2005 3007 3008 1
2006 3007 3009 1
2007 3010 3011 1
2008 3010 3012 1
2009 3013 3014 1
2010 3013 3015 1
2011 3016 3017 1
2012 3016 3018 1
2013 3019 3020 1
2014 3019 3021 1
2015 3022 3023 1
2016 3022 3024 1
2017 3025 3026 1
2018 3025 3027 1
2019 3028 3029 1
2020 3028 3030 1
2021 3031 3032 1
2022 3031 3033 1
2023 3034 3035 1
2024 3034 3036 1
2025 3037 3038 1
2026 3037 3039 1
2027 3040 3041 1
2028 3040 3042 1
2029 3043 3044 1
2030 3043 3045 1
2031 3046 3047 1
2032 3046 3048 1
2033 3049 3050 1
2034 3049 3051 1
2035 3052 3053 1
2036 3052 3054 1
2037 3055 3056 1
2038 3055 3057 1
2039 3058 3059 1
2040 3058 3060 1
2041 3061 3062 1
2042 3061 3063 1
2043 3064 3065 1
2044 3064 3066 1
2045 3067 3068 1
2046 3067 3069 1
2047 3070 3071 1
2048 3070 3072 1
2049 3073 3074 1
2050 3073 3075 1
2051 3076 3077 1
2052 3076 3078 1
2053 3079 3081 1
2054 3079 3080 1
2055 3082 3083 1
2056 3082 3084 1
2057 3085 3086 1
2058 3085 3087 1
2059 3088 3089 1
2060 3088 3090 1
2061 3091 3092 1
2062 3091 3093 1
2063 3094 3095 1
2064 3094 3096 1
2065 3097 3098 1
2066 3097 3099 1
2067 3100 3101 1
2068 3100 3102 1
2069 3103 3104 1
2070 3103 3105 1
2071 3106 3107 1
2072 3106 3108 1
2073 3109 3110 1
2074 3109 3111 1
2075 3112 3113 1
2076 3112 3114 1
2077 3115 3116 1
2078 3115 3117 1
2079 3118 3119 1
2080 3118 3120 1
2081 3121 3122 1
2082 3121 3123 1
2083 3124 3125 1
2084 3124 3126 1
2085 3127 3128 1
2086 3127 3129 1
2087 3130 3131 1
2088 3130 3132 1
2089 3133 3134 1
2090 3133 3135 1
2091 3136 3137 1
2092 3136 3138 1
2093 3139 3140 1
2094 3139 3141 1
2095 3142 3143 1
2096 3142 3144 1
2097 3145 3146 1
2098 3145 3147 1
2099 3148 3149 1
2100 3148 3150 1
2101 3151 3152 1
2102 3151 3153 1
2103 3154 3155 1
2104 3154 3156 1
2105 3157 3158 1
2106 3157 3159 1
2107 3160 3161 1
2108 3160 3162 1
2109 3163 3164 1
2110 3163 3165 1
2111 3166 3167 1
2112 3166 3168 1
2113 3169 3170 1
2114 3169 3171 1
2115 3172 3173 1
2116 3172 3174 1
2117 3175 3176 1
2118 3175 3177 1
2119 3178 3179 1
2120 3178 3180 1
2121 3181 3182 1
2122 3181 3183 1
2123 3184 3185 1
2124 3184 3186 1
2125 3187 3188 1
2126 3187 3189 1
2127 3190 3191 1
2128 3190 3192 1
2129 3193 3194 1
2130 3193 3195 1
2131 3196 3197 1
2132 3196 3198 1
2133 3199 3200 1
2134 3199 3201 1
2135 3202 3203 1
2136 3202 3204 1
2137 3205 3206 1
2138 3205 3207 1
2139 3208 3209 1
2140 3208 3210 1
2141 3211 3212 1
2142 3211 3213 1
2143 3214 3215 1
2144 3214 3216 1
2145 3217 3218 1
2146 3217 3219 1
2147 3220 3221 1
2148 3220 3222 1
2149 3223 3224 1
2150 3223 3225 1
2151 3226 3227 1
2152 3226 3228 1
2153 3229 3230 1
2154 3229 3231 1
2155 3232 3233 1
2156 3232 3234 1
2157 3235 3236 1
2158 3235 3237 1
2159 3238 3239 1
2160 3238 3240 1
2161 3241 3242 1
2162 3241 3243 1
2163 3244 3245 1
2164 3244 3246 1
2165 3247 3248 1
2166 3247 3249 1
2167 3250 3251 1
2168 3250 3252 1
2169 3253 3254 1
2170 3253 3255 1
2171 3256 3257 1
2172 3256 3258 1
2173 3259 3260 1
2174 3259 3261 1
2175 3262 3263 1
2176 3262 3264 1
2177 3265 3266 1
2178 3265 3267 1
2179 3268 3269 1
2180 3268 3270 1
2181 3271 3272 1
2182 3271 3273 1
2183 3274 3275 1
2184 3274 3276 1
2185 3277 3278 1
2186 3277 3279 1
2187 3280 3281 1
2188 3280 3282 1
2189 3283 3284 1
2190 3283 3285 1
2191 3286 3287 1
2192 3286 3288 1
2193 3289 3290 1
2194 3289 3291 1
2195 3292 3293 1
2196 3292 3294 1
2197 3295 3296 1
2198 3295 3297 1
2199 3298 3299 1
2200 3298 3300 1
2201 3301 3302 1
2202 3301 3303 1
2203 3304 3305 1
2204 3304 3306 1
2205 3307 3308 1
2206 3307 3309 1
2207 3310 3311 1
2208 3310 3312 1
2209 3313 3314 1
2210 3313 3315 1
2211 3316 3317 1
2212 3316 3318 1
2213 3319 3320 1
2214 3319 3321 1
2215 3322 3323 1
2216 3322 3324 1
2217 3325 3326 1
2218 3325 3327 1
2219 3328 3329 1
2220 3328 3330 1
2221 3331 3332 1
2222 3331 3333 1
2223 3334 3335 1
2224 3334 3336 1
2225 3337 3338 1
2226 3337 3339 1
2227 3340 3341 1
2228 3340 3342 1
2229 3343 3344 1
2230 3343 3345 1
2231 3346 3347 1
2232 3346 3348 1
2233 3349 3350 1
2234 3349 3351 1
2235 3352 3353 1
2236 3352 3354 1
2237 3355 3356 1
2238 3355 3357 1
2239 3358 3359 1
2240 3358 3360 1
2241 3361 3362 1
2242 3361 3363 1
2243 3364 3365 1
2244 3364 3366 1
2245 3367 3368 1
2246 3367 3369 1
2247 3370 3371 1
2248 3370 3372 1
2249 3373 3374 1
2250 3373 3375 1
2251 3376 3377 1
2252 3376 3378 1
2253 3379 3380 1
2254 3379 3381 1
2255 3382 3383 1
2256 3382 3384 1
2257 3385 3386 1
2258 3385 3387 1
2259 3388 3389 1
2260 3388 3390 1
2261 3391 3392 1
2262 3391 3393 1
2263 3394 3395 1
2264 3394 3396 1
2265 3397 3398 1
2266 3397 3399 1
2267 3400 3401 1
2268 3400 3402 1
2269 3403 3404 1
2270 3403 3405 1
2271 3406 3407 1
2272 3406 3408 1
2273 3409 3410 1
2274 3409 3411 1
2275 3412 3413 1
2276 3412 3414 1
2277 3415 3416 1
2278 3415 3417 1
2279 3418 3419 1
2280 3418 3420 1
2281 3421 3422 1
2282 3421 3423 1
2283 3424 3425 1
2284 3424 3426 1
2285 3427 3428 1
2286 3427 3429 1
2287 3430 3431 1
2288 3430 3432 1
2289 3433 3434 1
2290 3433 3435 1
2291 3436 3437 1
2292 3436 3438 1
2293 3439 3440 1
2294 3439 3441 1
2295 3442 3443 1
2296 3442 3444 1
2297 3445 3446 1
2298 3445 3447 1
2299 3448 3449 1
2300 3448 3450 1
2301 3451 3452 1
2302 3451 3453 1
2303 3454 3455 1
2304 3454 3456 1
2305 3457 3458 1
2306 3457 3459 1
2307 3460 3461 1
2308 3460 3462 1
2309 3463 3464 1
2310 3463 3465 1
2311 3466 3467 1
2312 3466 3468 1
2313 3469 3470 1
2314 3469 3471 1
2315 3472 3473 1
2316 3472 3474 1
2317 3475 3476 1
2318 3475 3477 1
2319 3478 3479 1
2320 3478 3480 1
2321 3481 3482 1
2322 3481 3483 1
2323 3484 3485 1
2324 3484 3486 1
2325 3487 3488 1
2326 3487 3489 1
2327 3490 3491 1
2328 3490 3492 1
2329 3493 3494 1
2330 3493 3495 1
2331 3496 3497 1
2332 3496 3498 1
2333 3499 3500 1
2334 3499 3501 1
2335 3502 3503 1
2336 3502 3504 1
2337 3505 3506 1
2338 3505 3507 1
2339 3508 3509 1
2340 3508 3510 1
2341 3511 3512 1
2342 3511 3513 1
2343 3514 3515 1
2344 3514 3516 1
2345 3517 3518 1
2346 3517 3519 1
2347 3520 3521 1
2348 3520 3522 1
2349 3523 3524 1
2350 3523 3525 1
2351 3526 3527 1
2352 3526 3528 1
2353 3529 3530 1
2354 3529 3531 1
2355 3532 3533 1
2356 3532 3534 1
2357 3535 3536 1
2358 3535 3537 1
2359 3538 3539 1
2360 3538 3540 1
2361 3541 3542 1
2362 3541 3543 1
2363 3544 3545 1
2364 3544 3546 1
2365 3547 3548 1
2366 3547 3549 1
2367 3550 3551 1
2368 3550 3552 1
2369 3553 3554 1
2370 3553 3555 1
2371 3556 3557 1
2372 3556 3558 1
2373 3559 3560 1
2374 3559 3561 1
2375 3562 3563 1
2376 3562 3564 1
2377 3565 3566 1
2378 3565 3567 1
2379 3568 3569 1
2380 3568 3570 1
2381 3571 3572 1
2382 3571 3573 1
2383 3574 3575 1
2384 3574 3576 1
2385 3577 3578 1
2386 3577 3579 1
2387 3580 3581 1
2388 3580 3582 1
2389 3583 3584 1
2390 3583 3585 1
2391 3586 3587 1
2392 3586 3588 1
2393 3589 3590 1
2394 3589 3591 1
2395 3592 3593 1
2396 3592 3594 1
2397 3595 3596 1
2398 3595 3597 1
2399 3598 3599 1
2400 3598 3600 1
2401 3601 3602 1
2402 3601 3603 1
2403 3604 3605 1
2404 3604 3606 1
2405 3607 3608 1
2406 3607 3609 1
2407 3610 3611 1
2408 3610 3612 1
2409 3613 3614 1
2410 3613 3615 1
2411 3616 3617 1
2412 3616 3618 1
2413 3619 3620 1
2414 3619 3621 1
2415 3622 3623 1
2416 3622 3624 1
2417 3625 3626 1
2418 3625 3627 1
2419 3628 3629 1
2420 3628 3630 1
2421 3631 3632 1
2422 3631 3633 1
2423 3634 3635 1
2424 3634 3636 1
2425 3637 3638 1
2426 3637 3639 1
2427 3640 3641 1
2428 3640 3642 1
2429 3643 3644 1
2430 3643 3645 1
2431 3646 3647 1
2432 3646 3648 1
2433 3649 3650 1
2434 3649 3651 1
2435 3652 3653 1
2436 3652 3654 1
2437 3655 3656 1
2438 3655 3657 1
2439 3658 3659 1
2440 3658 3660 1
2441 3661 3662 1
2442 3661 3663 1
2443 3664 3665 1
2444 3664 3666 1
2445 3667 3668 1
2446 3667 3669 1
2447 3670 3671 1
2448 3670 3672 1
2449 3673 3674 1
2450 3673 3675 1
2451 3676 3677 1
2452 3676 3678 1
2453 3679 3680 1
2454 3679 3681 1
2455 3682 3683 1
2456 3682 3684 1
2457 3685 3686 1
2458 3685 3687 1
2459 3688 3689 1
2460 3688 3690 1
2461 3691 3692 1
2462 3691 3693 1
2463 3694 3695 1
2464 3694 3696 1
2465 3697 3698 1
2466 3697 3699 1
2467 3700 3701 1
2468 3700 3702 1
2469 3703 3704 1
2470 3703 3705 1
2471 3706 3707 1
2472 3706 3708 1
2473 3709 3710 1
2474 3709 3711 1
2475 3712 3713 1
2476 3712 3714 1
2477 3715 3716 1
2478 3715 3717 1
2479 3718 3719 1
2480 3718 3720 1
2481 3721 3722 1
2482 3721 3723 1
2483 3724 3725 1
2484 3724 3726 1
2485 3727 3728 1
2486 3727 3729 1
2487 3730 3731 1
2488 3730 3732 1
2489 3733 3734 1
2490 3733 3735 1
2491 3736 3737 1
2492 3736 3738 1
2493 3739 3740 1
2494 3739 3741 1
2495 3742 3743 1
2496 3742 3744 1
2497 3745 3746 1
2498 3745 3747 1
2499 3748 3749 1
2500 3748 3750 1
2501 3751 3752 1
2502 3751 3753 1
2503 3754 3755 1
2504 3754 3756 1
2505 3757 3758 1
2506 3757 3759 1
2507 3760 3761 1
2508 3760 3762 1
2509 3763 3764 1
2510 3763 3765 1
2511 3766 3767 1
2512 3766 3768 1
2513 3769 3770 1
2514 3769 3771 1
2515 3772 3773 1
2516 3772 3774 1
2517 3775 3776 1
2518 3775 3777 1
2519 3778 3779 1
2520 3778 3780 1
2521 3781 3782 1
2522 3781 3783 1
2523 3784 3785 1
2524 3784 3786 1
2525 3787 3788 1
2526 3787 3789 1
2527 3790 3791 1
2528 3790 3792 1
2529 3793 3794 1
2530 3793 3795 1
2531 3796 3797 1
2532 3796 3798 1
2533 3799 3800 1
2534 3799 3801 1
2535 3802 3803 1
2536 3802 3804 1
2537 3805 3806 1
2538 3805 3807 1
2539 3808 3809 1
2540 3808 3810 1
2541 3811 3812 1
2542 3811 3813 1
2543 3814 3815 1
2544 3814 3816 1
2545 3817 3818 1
2546 3817 3819 1
2547 3820 3821 1
2548 3820 3822 1
2549 3823 3824 1
2550 3823 3825 1
2551 3826 3827 1
2552 3826 3828 1
2553 3829 3830 1
2554 3829 3831 1
2555 3832 3833 1
2556 3832 3834 1
2557 3835 3836 1
2558 3835 3837 1
2559 3838 3839 1
2560 3838 3840 1
2561 3841 3842 1
2562 3841 3843 1
2563 3844 3845 1
2564 3844 3846 1
2565 3847 3848 1
2566 3847 3849 1
2567 3850 3851 1
2568 3850 3852 1
2569 3853 3854 1
2570 3853 3855 1
2571 3856 3857 1
2572 3856 3858 1
2573 3859 3860 1
2574 3859 3861 1
2575 3862 3863 1
2576 3862 3864 1
2577 3865 3866 1
2578 3865 3867 1
2579 3868 3869 1
2580 3868 3870 1
2581 3871 3872 1
2582 3871 3873 1
2583 3874 3875 1
2584 3874 3876 1
2585 3877 3878 1
2586 3877 3879 1
2587 3880 3881 1
2588 3880 3882 1
2589 3883 3884 1
2590 3883 3885 1
2591 3886 3887 1
2592 3886 3888 1
2593 3889 3890 1
2594 3889 3891 1
2595 3892 3893 1
2596 3892 3894 1
2597 3895 3896 1
2598 3895 3897 1
2599 3898 3899 1
2600 3898 3900 1
2601 3901 3902 1
2602 3901 3903 1
2603 3904 3905 1
2604 3904 3906 1
2605 3907 3908 1
2606 3907 3909 1
2607 3910 3911 1
2608 3910 3912 1
2609 3913 3914 1
2610 3913 3915 1
2611 3916 3917 1
2612 3916 3918 1
2613 3919 3920 1
2614 3919 3921 1
2615 3922 3923 1
2616 3922 3924 1
2617 3925 3926 1
2618 3925 3927 1
2619 3928 3929 1
2620 3928 3930 1
2621 3931 3932 1
2622 3931 3933 1
2623 3934 3935 1
2624 3934 3936 1
2625 3937 3938 1
2626 3937 3939 1
2627 3940 3941 1
2628 3940 3942 1
2629 3943 3944 1
2630 3943 3945 1
2631 3946 3947 1
2632 3946 3948 1
2633 3949 3950 1
2634 3949 3951 1
2635 3952 3953 1
2636 3952 3954 1
2637 3955 3956 1
2638 3955 3957 1
2639 3958 3959 1
2640 3958 3960 1
2641 3961 3962 1
2642 3961 3963 1
2643 3964 3965 1
2644 3964 3966 1
2645 3967 3968 1
2646 3967 3969 1
2647 3970 3971 1
2648 3970 3972 1
2649 3973 3974 1
2650 3973 3975 1
2651 3976 3978 1
2652 3976 3977 1
2653 3979 3980 1
2654 3979 3981 1
2655 3982 3983 1
2656 3982 3984 1
2657 3985 3986 1
2658 3985 3987 1
2659 3988 3989 1
2660 3988 3990 1
2661 3991 3992 1
2662 3991 3993 1
2663 3994 3995 1
2664 3994 3996 1
2665 3997 3998 1
2666 3997 3999 1
2667 4000 4001 1
2668 4000 4002 1
2669 4003 4004 1
2670 4003 4005 1
2671 4006 4007 1
2672 4006 4008 1
2673 4009 4010 1
2674 4009 4011 1
2675 4012 4013 1
2676 4012 4014 1
2677 4015 4016 1
2678 4015 4017 1
2679 4018 4019 1
2680 4018 4020 1
2681 4021 4022 1
2682 4021 4023 1
2683 4024 4025 1
2684 4024 4026 1
2685 4027 4028 1
2686 4027 4029 1
2687 4030 4031 1
2688 4030 4032 1
2689 4033 4034 1
2690 4033 4035 1
2691 4036 4038 1
2692 4036 4037 1
2693 4039 4040 1
2694 4039 4041 1
2695 4042 4043 1
2696 4042 4044 1
2697 4045 4046 1
2698 4045 4047 1
2699 4048 4049 1
2700 4048 4050 1
2701 4051 4052 1
2702 4051 4053 1
2703 4054 4055 1
2704 4054 4056 1
2705 4057 4058 1
2706 4057 4059 1
2707 4060 4061 1
2708 4060 4062 1
2709 4063 4064 1
2710 4063 4065 1
2711 4066 4067 1
2712 4066 4068 1
2713 4069 4070 1
2714 4069 4071 1
2715 4072 4073 1
2716 4072 4074 1
2717 4075 4076 1
2718 4075 4077 1
2719 4078 4079 1
2720 4078 4080 1
2721 4081 4082 1
2722 4081 4083 1
2723 4084 4085 1
2724 4084 4086 1
2725 4087 4088 1
2726 4087 4089 1
2727 4090 4091 1
2728 4090 4092 1
2729 4093 4094 1
2730 4093 4095 1
2731 4096 4097 1
2732 4096 4098 1
2733 4099 4100 1
2734 4099 4101 1
2735 4102 4103 1
2736 4102 4104 1
2737 4105 4106 1
2738 4105 4107 1
2739 4108 4109 1
2740 4108 4110 1
2741 4111 4112 1
2742 4111 4113 1
2743 4114 4115 1
2744 4114 4116 1
2745 4117 4118 1
2746 4117 4119 1
2747 4120 4121 1
2748 4120 4122 1
2749 4123 4124 1
2750 4123 4125 1
2751 4126 4127 1
2752 4126 4128 1
2753 4129 4130 1
2754 4129 4131 1
2755 4132 4133 1
2756 4132 4134 1
2757 4135 4136 1
2758 4135 4137 1
2759 4138 4139 1
2760 4138 4140 1
2761 4141 4142 1
2762 4141 4143 1
2763 4144 4145 1
2764 4144 4146 1
2765 4147 4148 1
2766 4147 4149 1
2767 4150 4151 1
2768 4150 4152 1
2769 4153 4154 1
2770 4153 4155 1
2771 4156 4157 1
2772 4156 4158 1
2773 4159 4160 1
2774 4159 4161 1
2775 4162 4163 1
2776 4162 4164 1
2777 4165 4166 1
2778 4165 4167 1
2779 4168 4169 1
2780 4168 4170 1
2781 4171 4172 1
2782 4171 4173 1
2783 4174 4175 1
2784 4174 4176 1
2785 4177 4178 1
2786 4177 4179 1
2787 4180 4181 1
2788 4180 4182 1
2789 4183 4184 1
2790 4183 4185 1
2791 4186 4187 1
2792 4186 4188 1
2793 4189 4190 1
2794 4189 4191 1
2795 4192 4193 1
2796 4192 4194 1
2797 4195 4196 1
2798 4195 4197 1
2799 4198 4199 1
2800 4198 4200 1
2801 4201 4202 1
2802 4201 4203 1
2803 4204 4205 1
2804 4204 4206 1
2805 4207 4208 1
2806 4207 4209 1
2807 4210 4211 1
2808 4210 4212 1
2809 4213 4214 1
2810 4213 4215 1
2811 4216 4217 1
2812 4216 4218 1
2813 4219 4220 1
2814 4219 4221 1
2815 4222 4223 1
2816 4222 4224 1
2817 4225 4226 1
2818 4225 4227 1
2819 4228 4229 1
2820 4228 4230 1
2821 4231 4232 1
2822 4231 4233 1
2823 4234 4235 1
2824 4234 4236 1
2825 4237 4238 1
2826 4237 4239 1
2827 4240 4241 1
2828 4240 4242 1
2829 4243 4244 1
2830 4243 4245 1
2831 4246 4247 1
2832 4246 4248 1
2833 4249 4250 1
2834 4249 4251 1
2835 4252 4253 1
2836 4252 4254 1
2837 4255 4256 1
2838 4255 4257 1
2839 4258 4259 1
2840 4258 4260 1
2841 4261 4262 1
2842 4261 4263 1
2843 4264 4265 1
2844 4264 4266 1
2845 4267 4268 1
2846 4267 4269 1
2847 4270 4271 1
2848 4270 4272 1
2849 4273 4274 1
2850 4273 4275 1
2851 4276 4277 1
2852 4276 4278 1
2853 4279 4280 1
2854 4279 4281 1
2855 4282 4283 1
2856 4282 4284 1
2857 4285 4286 1
2858 4285 4287 1
2859 4288 4289 1
2860 4288 4290 1
2861 4291 4292 1
2862 4291 4293 1
2863 4294 4295 1
2864 4294 4296 1
2865 4297 4298 1
2866 4297 4299 1
2867 4300 4301 1
2868 4300 4302 1
2869 4303 4304 1
2870 4303 4305 1
2871 4306 4307 1
2872 4306 4308 1
2873 4309 4310 1
2874 4309 4311 1
2875 4312 4313 1
2876 4312 4314 1
2877 4315 4316 1
2878 4315 4317 1
2879 4318 4319 1
2880 4318 4320 1
2881 4321 4322 1
2882 4321 4323 1
2883 4324 4325 1
2884 4324 4326 1
2885 4327 4328 1
2886 4327 4329 1
2887 4330 4332 1
2888 4330 4331 1
2889 4333 4334 1
2890 4333 4335 1
2891 4336 4337 1
2892 4336 4338 1
2893 4339 4340 1
2894 4339 4341 1
2895 4342 4343 1
2896 4342 4344 1
2897 4345 4346 1
2898 4345 4347 1
2899 4348 4349 1
2900 4348 4350 1
2901 4351 4352 1
2902 4351 4353 1
2903 4354 4355 1
2904 4354 4356 1
2905 4357 4358 1
2906 4357 4359 1
2907 4360 4361 1
2908 4360 4362 1
2909 4363 4364 1
2910 4363 4365 1
2911 4366 4367 1
2912 4366 4368 1
2913 4369 4370 1
2914 4369 4371 1
2915 4372 4373 1
2916 4372 4374 1
2917 4375 4376 1
2918 4375 4377 1
2919 4378 4379 1
2920 4378 4380 1
2921 4381 4382 1
2922 4381 4383 1
2923 4384 4385 1
2924 4384 4386 1
2925 4387 4388 1
2926 4387 4389 1
2927 4390 4391 1
2928 4390 4392 1
2929 4393 4394 1
2930 4393 4395 1
2931 4396 4397 1
2932 4396 4398 1
2933 4399 4400 1
2934 4399 4401 1
2935 4402 4403 1
2936 4402 4404 1
2937 4405 4406 1
2938 4405 4407 1
2939 4408 4409 1
2940 4408 4410 1
2941 4411 4412 1
2942 4411 4413 1
2943 4414 4415 1
2944 4414 4416 1
2945 4417 4418 1
2946 4417 4419 1
2947 4420 4421 1
2948 4420 4422 1
2949 4423 4424 1
2950 4423 4425 1
2951 4426 4427 1
2952 4426 4428 1
2953 4429 4430 1
2954 4429 4431 1
2955 4432 4433 1
2956 4432 4434 1
2957 4435 4436 1
2958 4435 4437 1
2959 4438 4439 1
2960 4438 4440 1
2961 4441 4442 1
2962 4441 4443 1
2963 4444 4445 1
2964 4444 4446 1
2965 4447 4448 1
2966 4447 4449 1
2967 4450 4451 1
2968 4450 4452 1
2969 4453 4454 1
2970 4453 4455 1
2971 4456 4457 1
2972 4456 4458 1
2973 4459 4460 1
2974 4459 4461 1
2975 4462 4463 1
2976 4462 4464 1
2977 4465 4466 1
2978 4465 4467 1
2979 4468 4469 1
2980 4468 4470 1
2981 4471 4472 1
2982 4471 4473 1
2983 4474 4475 1
2984 4474 4476 1
2985 4477 4478 1
2986 4477 4479 1
2987 4480 4481 1
2988 4480 4482 1
2989 4483 4484 1
2990 4483 4485 1
2991 4486 4487 1
2992 4486 4488 1
2993 4489 4490 1
2994 4489 4491 1
2995 4492 4493 1
2996 4492 4494 1
2997 4495 4496 1
2998 4495 4497 1
2999 4498 4499 1
3000 4498 4500 1
3001 4501 4502 1
3002 4501 4503 1
3003 4504 4505 1
3004 4504 4506 1
3005 4507 4508 1
3006 4507 4509 1
3007 4510 4511 1
3008 4510 4512 1
3009 4513 4514 1
3010 4513 4515 1
3011 4516 4517 1
3012 4516 4518 1
3013 4519 4520 1
3014 4519 4521 1
3015 4522 4523 1
3016 4522 4524 1
3017 4525 4526 1
3018 4525 4527 1
3019 4528 4529 1
3020 4528 4530 1
3021 4531 4532 1
3022 4531 4533 1
3023 4534 4535 1
3024 4534 4536 1
3025 4537 4538 1
3026 4537 4539 1
3027 4540 4541 1
3028 4540 4542 1
3029 4543 4544 1
3030 4543 4545 1
3031 4546 4547 1
3032 4546 4548 1
3033 4549 4550 1
3034 4549 4551 1
3035 4552 4553 1
3036 4552 4554 1
3037 4555 4556 1
3038 4555 4557 1
3039 4558 4559 1
3040 4558 4560 1
3041 4561 4562 1
3042 4561 4563 1
3043 4564 4565 1
3044 4564 4566 1
3045 4567 4568 1
3046 4567 4569 1
3047 4570 4571 1
3048 4570 4572 1
3049 4573 4574 1
3050 4573 4575 1
3051 4576 4577 1
3052 4576 4578 1
3053 4579 4580 1
3054 4579 4581 1
3055 4582 4583 1
3056 4582 4584 1
3057 4585 4586 1
3058 4585 4587 1
3059 4588 4589 1
3060 4588 4590 1
3061 4591 4592 1
3062 4591 4593 1
3063 4594 4595 1
3064 4594 4596 1
3065 4597 4598 1
3066 4597 4599 1
3067 4600 4601 1
3068 4600 4602 1
3069 4603 4604 1
3070 4603 4605 1
3071 4606 4607 1
3072 4606 4608 1
3073 4609 4610 1
3074 4609 4611 1
3075 4612 4613 1
3076 4612 4614 1
3077 4615 4616 1
3078 4615 4617 1
3079 4618 4619 1
3080 4618 4620 1
3081 4621 4622 1
3082 4621 4623 1
3083 4624 4625 1
3084 4624 4626 1
3085 4627 4628 1
3086 4627 4629 1
3087 4630 4631 1
3088 4630 4632 1
3089 4633 4634 1
3090 4633 4635 1
3091 4636 4637 1
3092 4636 4638 1
3093 4639 4640 1
3094 4639 4641 1
3095 4642 4643 1
3096 4642 4644 1
3097 4645 4646 1
3098 4645 4647 1
3099 4648 4649 1
3100 4648 4650 1
3101 4651 4652 1
3102 4651 4653 1
3103 4654 4655 1
3104 4654 4656 1
3105 4657 4658 1
3106 4657 4659 1
3107 4660 4661 1
3108 4660 4662 1
3109 4663 4664 1
3110 4663 4665 1
3111 4666 4667 1
3112 4666 4668 1
3113 4669 4670 1
3114 4669 4671 1
3115 4672 4673 1
3116 4672 4674 1
3117 4675 4676 1
3118 4675 4677 1
3119 4678 4679 1
3120 4678 4680 1
3121 4681 4682 1
3122 4681 4683 1
3123 4684 4685 1
3124 4684 4686 1
3125 4687 4688 1
3126 4687 4689 1
3127 4690 4691 1
3128 4690 4692 1
3129 4693 4694 1
3130 4693 4695 1
3131 4696 4697 1
3132 4696 4698 1
3133 4699 4700 1
3134 4699 4701 1
3135 4702 4703 1
3136 4702 4704 1
3137 4705 4706 1
3138 4705 4707 1
3139 4708 4709 1
3140 4708 4710 1
3141 4711 4712 1
3142 4711 4713 1
3143 4714 4715 1
3144 4714 4716 1
3145 4717 4718 1
3146 4717 4719 1
3147 4720 4721 1
3148 4720 4722 1
3149 4723 4724 1
3150 4723 4725 1
3151 4726 4727 1
3152 4726 4728 1
3153 4729 4730 1
3154 4729 4731 1
3155 4732 4733 1
3156 4732 4734 1
3157 4735 4736 1
3158 4735 4737 1
3159 4738 4739 1
3160 4738 4740 1
3161 4741 4742 1
3162 4741 4743 1
3163 4744 4745 1
3164 4744 4746 1
3165 4747 4748 1
3166 4747 4749 1
3167 4750 4751 1
3168 4750 4752 1
3169 4753 4754 1
3170 4753 4755 1
3171 4756 4757 1
3172 4756 4758 1
3173 4759 4760 1
3174 4759 4761 1
3175 4762 4763 1
3176 4762 4764 1
3177 4765 4766 1
3178 4765 4767 1
3179 4768 4769 1
3180 4768 4770 1
3181 4771 4772 1
3182 4771 4773 1
3183 4774 4775 1
3184 4774 4776 1
3185 4777 4778 1
3186 4777 4779 1
3187 4780 4781 1
3188 4780 4782 1
3189 4783 4784 1
3190 4783 4785 1
3191 4786 4787 1
3192 4786 4788 1
3193 4789 4790 1
3194 4789 4791 1
3195 4792 4793 1
3196 4792 4794 1
3197 4795 4796 1
3198 4795 4797 1
3199 4798 4799 1
3200 4798 4800 1
3201 4801 4802 1
3202 4801 4803 1
3203 4804 4805 1
3204 4804 4806 1
3205 4807 4808 1
3206 4807 4809 1
3207 4810 4811 1
3208 4810 4812 1
3209 4813 4814 1
3210 4813 4815 1
3211 4816 4817 1
3212 4816 4818 1
3213 4819 4820 1
3214 4819 4821 1
3215 4822 4823 1
3216 4822 4824 1
3217 4825 4826 1
3218 4825 4827 1
3219 4828 4829 1
3220 4828 4830 1
3221 4831 4832 1
3222 4831 4833 1
3223 4834 4835 1
3224 4834 4836 1
3225 4837 4838 1
3226 4837 4839 1
3227 4840 4841 1
3228 4840 4842 1
3229 4843 4844 1
3230 4843 4845 1
3231 4846 4847 1
3232 4846 4848 1
3233 4849 4850 1
3234 4849 4851 1
3235 4852 4853 1
3236 4852 4854 1
3237 4855 4856 1
3238 4855 4857 1
3239 4858 4859 1
3240 4858 4860 1
3241 4861 4862 1
3242 4861 4863 1
3243 4864 4865 1
3244 4864 4866 1
3245 4867 4868 1
3246 4867 4869 1
3247 4870 4871 1
3248 4870 4872 1
3249 4873 4874 1
3250 4873 4875 1
3251 4876 4877 1
3252 4876 4878 1
3253 4879 4880 1
3254 4879 4881 1
3255 4882 4883 1
3256 4882 4884 1
3257 4885 4886 1
3258 4885 4887 1
3259 4888 4889 1
3260 4888 4890 1
3261 4891 4892 1
3262 4891 4893 1
3263 4894 4895 1
3264 4894 4896 1
3265 4897 4898 1
3266 4897 4899 1
3267 4900 4901 1
3268 4900 4902 1
3269 4903 4904 1
3270 4903 4905 1
3271 4906 4907 1
3272 4906 4908 1
3273 4909 4910 1
3274 4909 4911 1
3275 4912 4913 1
3276 4912 4914 1
3277 4915 4916 1
3278 4915 4917 1
3279 4918 4919 1
3280 4918 4920 1
3281 4921 4922 1
3282 4921 4923 1
3283 4924 4925 1
3284 4924 4926 1
3285 4927 4928 1
3286 4927 4929 1
3287 4930 4931 1
3288 4930 4932 1
3289 4933 4934 1
3290 4933 4935 1
3291 4936 4937 1
3292 4936 4938 1
3293 4939 4940 1
3294 4939 4941 1
3295 4942 4943 1
3296 4942 4944 1
3297 4945 4946 1
3298 4945 4947 1
3299 4948 4949 1
3300 4948 4950 1
3301 4951 4952 1
3302 4951 4953 1
3303 4954 4955 1
3304 4954 4956 1
3305 4957 4958 1
3306 4957 4959 1
3307 4960 4961 1
3308 4960 4962 1
3309 4963 4964 1
3310 4963 4965 1
3311 4966 4967 1
3312 4966 4968 1
3313 4969 4970 1
3314 4969 4971 1
3315 4972 4973 1
3316 4972 4974 1
3317 4975 4976 1
3318 4975 4977 1
3319 4978 4979 1
3320 4978 4980 1
3321 4981 4982 1
3322 4981 4983 1
3323 4984 4986 1
3324 4984 4985 1
3325 4987 4988 1
3326 4987 4989 1
3327 4990 4991 1
3328 4990 4992 1
3329 4993 4994 1
3330 4993 4995 1
3331 4996 4997 1
3332 4996 4998 1
3333 4999 5000 1
3334 4999 5001 1
3335 5002 5003 1
3336 5002 5004 1
3337 5005 5006 1
3338 5005 5007 1
3339 5008 5009 1
3340 5008 5010 1
3341 5011 5012 1
3342 5011 5013 1
3343 5014 5015 1
3344 5014 5016 1
3345 5017 5018 1
3346 5017 5019 1
3347 5020 5021 1
3348 5020 5022 1
3349 5023 5024 1
3350 5023 5025 1
3351 5026 5027 1
3352 5026 5028 1
3353 5029 5030 1
3354 5029 5031 1
3355 5032 5033 1
3356 5032 5034 1
3357 5035 5036 1
3358 5035 5037 1
3359 5038 5039 1
3360 5038 5040 1
3361 5041 5042 1
3362 5041 5043 1
3363 5044 5045 1
3364 5044 5046 1
3365 5047 5048 1
3366 5047 5049 1
3367 5050 5051 1
3368 5050 5052 1
3369 5053 5054 1
3370 5053 5055 1
3371 5056 5057 1
3372 5056 5058 1
3373 5059 5060 1
3374 5059 5061 1
3375 5062 5063 1
3376 5062 5064 1
3377 5065 5066 1
3378 5065 5067 1
3379 5068 5069 1
3380 5068 5070 1
3381 5071 5072 1
3382 5071 5073 1
3383 5074 5075 1
3384 5074 5076 1
3385 5077 5078 1
3386 5077 5079 1
3387 5080 5081 1
3388 5080 5082 1
3389 5083 5084 1
3390 5083 5085 1
3391 5086 5087 1
3392 5086 5088 1
3393 5089 5090 1
3394 5089 5091 1
3395 5092 5093 1
3396 5092 5094 1
3397 5095 5096 1
3398 5095 5097 1
3399 5098 5099 1
3400 5098 5100 1
3401 5101 5102 1
3402 5101 5103 1
3403 5104 5105 1
3404 5104 5106 1
3405 5107 5108 1
3406 5107 5109 1
3407 5110 5111 1
3408 5110 5112 1
3409 5113 5114 1
3410 5113 5115 1
3411 5116 5117 1
3412 5116 5118 1
3413 5119 5120 1
3414 5119 5121 1
3415 5122 5123 1
3416 5122 5124 1
3417 5125 5126 1
3418 5125 5127 1
3419 5128 5129 1
3420 5128 5130 1
3421 5131 5132 1
3422 5131 5133 1
3423 5134 5135 1
3424 5134 5136 1
3425 5137 5138 1
3426 5137 5139 1
3427 5140 5141 1
3428 5140 5142 1
3429 5143 5144 1
3430 5143 5145 1
3431 5146 5147 1
3432 5146 5148 1
3433 5149 5150 1
3434 5149 5151 1
3435 5152 5153 1
3436 5152 5154 1
3437 5155 5156 1
3438 5155 5157 1
3439 5158 5159 1
3440 5158 5160 1
3441 5161 5162 1
3442 5161 5163 1
3443 5164 5165 1
3444 5164 5166 1
3445 5167 5168 1
3446 5167 5169 1
3447 5170 5171 1
3448 5170 5172 1
3449 5173 5174 1
3450 5173 5175 1
3451 5176 5177 1
3452 5176 5178 1
3453 5179 5180 1
3454 5179 5181 1
3455 5182 5183 1
3456 5182 5184 1
3457 5185 5186 1
3458 5185 5187 1
3459 5188 5189 1
3460 5188 5190 1
3461 5191 5192 1
3462 5191 5193 1
3463 5194 5195 1
3464 5194 5196 1
3465 5197 5198 1
3466 5197 5199 1
3467 5200 5201 1
3468 5200 5202 1
3469 5203 5204 1
3470 5203 5205 1
3471 5206 5207 1
3472 5206 5208 1
3473 5209 5210 1
3474 5209 5211 1
3475 5212 5213 1
3476 5212 5214 1
3477 5215 5216 1
3478 5215 5217 1
3479 5218 5219 1
3480 5218 5220 1
3481 5221 5222 1
3482 5221 5223 1
3483 5224 5225 1
3484 5224 5226 1
3485 5227 5228 1
3486 5227 5229 1
3487 5230 5231 1
3488 5230 5232 1
3489 5233 5234 1
3490 5233 5235 1
3491 5236 5237 1
3492 5236 5238 1
3493 5239 5240 1
3494 5239 5241 1
3495 5242 5243 1
3496 5242 5244 1
3497 5245 5246 1
3498 5245 5247 1
3499 5248 5249 1
3500 5248 5250 1
3501 5251 5252 1
3502 5251 5253 1
3503 5254 5255 1
3504 5254 5256 1
3505 5257 5258 1
3506 5257 5259 1
3507 5260 5261 1
3508 5260 5262 1
3509 5263 5264 1
3510 5263 5265 1
3511 5266 5267 1
3512 5266 5268 1
3513 5269 5270 1
3514 5269 5271 1
3515 5272 5273 1
3516 5272 5274 1
3517 5275 5276 1
3518 5275 5277 1
3519 5278 5279 1
3520 5278 5280 1
3521 5281 5282 1
3522 5281 5283 1
3523 5284 5285 1
3524 5284 5286 1
3525 5287 5288 1
3526 5287 5289 1
3527 5290 5291 1
3528 5290 5292 1
3529 5293 5294 1
3530 5293 5295 1
3531 5296 5297 1
3532 5296 5298 1
3533 5299 5300 1
3534 5299 5301 1
3535 5302 5303 1
3536 5302 5304 1
3537 5305 5306 1
3538 5305 5307 1
3539 5308 5309 1
3540 5308 5310 1
3541 5311 5312 1
3542 5311 5313 1
3543 5314 5315 1
3544 5314 5316 1
3545 5317 5318 1
3546 5317 5319 1
3547 5320 5321 1
3548 5320 5322 1
3549 5323 5324 1
3550 5323 5325 1
3551 5326 5327 1
3552 5326 5328 1
3553 5329 5330 1
3554 5329 5331 1
3555 5332 5333 1
3556 5332 5334 1
3557 5335 5336 1
3558 5335 5337 1
3559 5338 5339 1
3560 5338 5340 1
3561 5341 5342 1
3562 5341 5343 1
3563 5344 5345 1
3564 5344 5346 1
3565 5347 5348 1
3566 5347 5349 1
3567 5350 5351 1
3568 5350 5352 1
3569 5353 5354 1
3570 5353 5355 1
3571 5356 5357 1
3572 5356 5358 1
3573 5359 5360 1
3574 5359 5361 1
3575 5362 5363 1
3576 5362 5364 1
3577 5365 5366 1
3578 5365 5367 1
3579 5368 5369 1
3580 5368 5370 1
3581 5371 5372 1
3582 5371 5373 1
3583 5374 5375 1
3584 5374 5376 1
3585 5377 5378 1
3586 5377 5379 1
3587 5380 5381 1
3588 5380 5382 1
3589 5383 5384 1
3590 5383 5385 1
3591 5386 5387 1
3592 5386 5388 1
3593 5389 5390 1
3594 5389 5391 1
3595 5392 5393 1
3596 5392 5394 1
3597 5395 5396 1
3598 5395 5397 1
3599 5398 5399 1
3600 5398 5400 1
3601 5401 5402 1
3602 5401 5403 1
3603 5404 5405 1
3604 5404 5406 1
3605 5407 5408 1
3606 5407 5409 1
3607 5410 5411 1
3608 5410 5412 1
3609 5413 5414 1
3610 5413 5415 1
3611 5416 5417 1
3612 5416 5418 1
3613 5419 5420 1
3614 5419 5421 1
3615 5422 5423 1
3616 5422 5424 1
3617 5425 5426 1
3618 5425 5427 1
3619 5428 5429 1
3620 5428 5430 1
3621 5431 5432 1
3622 5431 5433 1
3623 5434 5435 1
3624 5434 5436 1
3625 5437 5438 1
3626 5437 5439 1
3627 5440 5441 1
3628 5440 5442 1
3629 5443 5444 1
3630 5443 5445 1
3631 5446 5447 1
3632 5446 5448 1
3633 5449 5450 1
3634 5449 5451 1
3635 5452 5453 1
3636 5452 5454 1
3637 5455 5456 1
3638 5455 5457 1
3639 5458 5459 1
3640 5458 5460 1
3641 5461 5462 1
3642 5461 5463 1
3643 5464 5465 1
3644 5464 5466 1
3645 5467 5468 1
3646 5467 5469 1
3647 5470 5471 1
3648 5470 5472 1
3649 5473 5474 1
3650 5473 5475 1
3651 5476 5477 1
3652 5476 5478 1
3653 5479 5480 1
3654 5479 5481 1
3655 5482 5483 1
3656 5482 5484 1
3657 5485 5486 1
3658 5485 5487 1
3659 5488 5489 1
3660 5488 5490 1
3661 5491 5492 1
3662 5491 5493 1
3663 5494 5495 1
3664 5494 5496 1
3665 5497 5498 1
3666 5497 5499 1
3667 5500 5501 1
3668 5500 5502 1
3669 5503 5504 1
3670 5503 5505 1
3671 5506 5507 1
3672 5506 5508 1
3673 5509 5511 1
3674 5509 5510 1
3675 5512 5513 1
3676 5512 5514 1
3677 5515 5516 1
3678 5515 5517 1
3679 5518 5519 1
3680 5518 5520 1
3681 5521 5522 1
3682 5521 5523 1
3683 5524 5525 1
3684 5524 5526 1
3685 5527 5528 1
3686 5527 5529 1
3687 5530 5531 1
3688 5530 5532 1
3689 5533 5534 1
3690 5533 5535 1
3691 5536 5537 1
3692 5536 5538 1
3693 5539 5540 1
3694 5539 5541 1
3695 5542 5543 1
3696 5542 5544 1
3697 5545 5546 1
3698 5545 5547 1
3699 5548 5549 1
3700 5548 5550 1
3701 5551 5552 1
3702 5551 5553 1
3703 5554 5555 1
3704 5554 5556 1
3705 5557 5558 1
3706 5557 5559 1
3707 5560 5561 1
3708 5560 5562 1
3709 5563 5564 1
3710 5563 5565 1
3711 5566 5567 1
3712 5566 5568 1
3713 5569 5570 1
3714 5569 5571 1
3715 5572 5573 1
3716 5572 5574 1
3717 5575 5576 1
3718 5575 5577 1
3719 5578 5579 1
3720 5578 5580 1
3721 5581 5582 1
3722 5581 5583 1
3723 5584 5585 1
3724 5584 5586 1
3725 5587 5588 1
3726 5587 5589 1
3727 5590 5591 1
3728 5590 5592 1
3729 5593 5594 1
3730 5593 5595 1
3731 5596 5597 1
3732 5596 5598 1
3733 5599 5600 1
3734 5599 5601 1
3735 5602 5603 1
3736 5602 5604 1
3737 5605 5606 1
3738 5605 5607 1
3739 5608 5609 1
3740 5608 5610 1
3741 5611 5612 1
3742 5611 5613 1
3743 5614 5615 1
3744 5614 5616 1
3745 5617 5618 1
3746 5617 5619 1
3747 5620 5621 1
3748 5620 5622 1
3749 5623 5624 1
3750 5623 5625 1
3751 5626 5627 1
3752 5626 5628 1
3753 5629 5630 1
3754 5629 5631 1
3755 5632 5633 1
3756 5632 5634 1
3757 5635 5636 1
3758 5635 5637 1
3759 5638 5639 1
3760 5638 5640 1
3761 5641 5643 1
3762 5641 5642 1
3763 5644 5645 1
3764 5644 5646 1
3765 5647 5648 1
3766 5647 5649 1
3767 5650 5651 1
3768 5650 5652 1
3769 5653 5654 1
3770 5653 5655 1
3771 5656 5657 1
3772 5656 5658 1
3773 5659 5660 1
3774 5659 5661 1
3775 5662 5663 1
3776 5662 5664 1
3777 5665 5666 1
3778 5665 5667 1
3779 5668 5669 1
3780 5668 5670 1
3781 5671 5672 1
3782 5671 5673 1
3783 5674 5675 1
3784 5674 5676 1
3785 5677 5678 1
3786 5677 5679 1
3787 5680 5681 1
3788 5680 5682 1
3789 5683 5684 1
3790 5683 5685 1
3791 5686 5687 1
3792 5686 5688 1
3793 5689 5690 1
3794 5689 5691 1
3795 5692 5694 1
3796 5692 5693 1
3797 5695 5696 1
3798 5695 5697 1
3799 5698 5699 1
3800 5698 5700 1
3801 5701 5702 1
3802 5701 5703 1
3803 5704 5705 1
3804 5704 5706 1
3805 5707 5708 1
3806 5707 5709 1
3807 5710 5711 1
3808 5710 5712 1
3809 5713 5714 1
3810 5713 5715 1
3811 5716 5717 1
3812 5716 5718 1
3813 5719 5720 1
3814 5719 5721 1
3815 5722 5723 1
3816 5722 5724 1
3817 5725 5726 1
3818 5725 5727 1
3819 5728 5729 1
3820 5728 5730 1
3821 5731 5732 1
3822 5731 5733 1
3823 5734 5735 1
3824 5734 5736 1
3825 5737 5738 1
3826 5737 5739 1
3827 5740 5741 1
3828 5740 5742 1
3829 5743 5744 1
3830 5743 5745 1
3831 5746 5747 1
3832 5746 5748 1
3833 5749 5751 1
3834 5749 5750 1
3835 5752 5753 1
3836 5752 5754 1
3837 5755 5756 1
3838 5755 5757 1
3839 5758 5759 1
3840 5758 5760 1
3841 5761 5762 1
3842 5761 5763 1
3843 5764 5765 1
3844 5764 5766 1
3845 5767 5768 1
3846 5767 5769 1
3847 5770 5771 1
3848 5770 5772 1
3849 5773 5774 1
3850 5773 5775 1
3851 5776 5777 1
3852 5776 5778 1
3853 5779 5780 1
3854 5779 5781 1
3855 5782 5783 1
3856 5782 5784 1
3857 5785 5786 1
3858 5785 5787 1
3859 5788 5789 1
3860 5788 5790 1
3861 5791 5792 1
3862 5791 5793 1
3863 5794 5795 1
3864 5794 5796 1
3865 5797 5798 1
3866 5797 5799 1
3867 5800 5801 1
3868 5800 5802 1
3869 5803 5804 1
3870 5803 5805 1
3871 5806 5807 1
3872 5806 5808 1
3873 5809 5810 1
3874 5809 5811 1
3875 5812 5813 1
3876 5812 5814 1
3877 5815 5816 1
3878 5815 5817 1
3879 5818 5819 1
3880 5818 5820 1
3881 5821 5822 1
3882 5821 5823 1
3883 5824 5825 1
3884 5824 5826 1
3885 5827 5828 1
3886 5827 5829 1
3887 5830 5831 1
3888 5830 5832 1
3889 5833 5834 1
3890 5833 5835 1
3891 5836 5837 1
3892 5836 5838 1
3893 5839 5840 1
3894 5839 5841 1
3895 5842 5843 1
3896 5842 5844 1
3897 5845 5846 1
3898 5845 5847 1
3899 5848 5849 1
3900 5848 5850 1
3901 5851 5852 1
3902 5851 5853 1
3903 5854 5855 1
3904 5854 5856 1
3905 5857 5858 1
3906 5857 5859 1
3907 5860 5861 1
3908 5860 5862 1
3909 5863 5864 1
3910 5863 5865 1
3911 5866 5867 1
3912 5866 5868 1
3913 5869 5870 1
3914 5869 5871 1
3915 5872 5873 1
3916 5872 5874 1
3917 5875 5876 1
3918 5875 5877 1
3919 5878 5879 1
3920 5878 5880 1
3921 5881 5882 1
3922 5881 5883 1
3923 5884 5885 1
3924 5884 5886 1
3925 5887 5888 1
3926 5887 5889 1
3927 5890 5891 1
3928 5890 5892 1
3929 5893 5894 1
3930 5893 5895 1
3931 5896 5897 1
3932 5896 5898 1
3933 5899 5900 1
3934 5899 5901 1
3935 5902 5903 1
3936 5902 5904 1
3937 5905 5906 1
3938 5905 5907 1
3939 5908 5909 1
3940 5908 5910 1
3941 5911 5912 1
3942 5911 5913 1
3943 5914 5915 1
3944 5914 5916 1
3945 5917 5918 1
3946 5917 5919 1
3947 5920 5921 1
3948 5920 5922 1
3949 5923 5924 1
3950 5923 5925 1
3951 5926 5927 1
3952 5926 5928 1
3953 5929 5930 1
3954 5929 5931 1
3955 5932 5933 1
3956 5932 5934 1
3957 5935 5936 1
3958 5935 5937 1
3959 5938 5939 1
3960 5938 5940 1
3961 5941 5942 1
3962 5941 5943 1
3963 5944 5945 1
3964 5944 5946 1
3965 5947 5948 1
3966 5947 5949 1
3967 5950 5951 1
3968 5950 5952 1
3969 5953 5954 1
3970 5953 5955 1
3971 5956 5957 1
3972 5956 5958 1
3973 5959 5960 1
3974 5959 5961 1
3975 5962 5963 1
3976 5962 5964 1
3977 5965 5966 1
3978 5965 5967 1
3979 5968 5969 1
3980 5968 5970 1
3981 5971 5972 1
3982 5971 5973 1
3983 5974 5975 1
3984 5974 5976 1
3985 5977 5978 1
3986 5977 5979 1
3987 5980 5981 1
3988 5980 5982 1
3989 5983 5984 1
3990 5983 5985 1
3991 5986 5987 1
3992 5986 5988 1
3993 5989 5990 1
3994 5989 5991 1
3995 5992 5993 1
3996 5992 5994 1
3997 5995 5996 1
3998 5995 5997 1
3999 5998 5999 1
4000 5998 6000 1
4001 6001 6002 1
4002 6001 6003 1
4003 6004 6005 1
4004 6004 6006 1
4005 6007 6008 1
4006 6007 6009 1
4007 6010 6011 1
4008 6010 6012 1
4009 6013 6014 1
4010 6013 6015 1
4011 6016 6017 1
4012 6016 6018 1
4013 6019 6020 1
4014 6019 6021 1
4015 6022 6023 1
4016 6022 6024 1
4017 6025 6026 1
4018 6025 6027 1
4019 6028 6029 1
4020 6028 6030 1
4021 6031 6032 1
4022 6031 6033 1
4023 6034 6035 1
4024 6034 6036 1
4025 6037 6038 1
4026 6037 6039 1
4027 6040 6041 1
4028 6040 6042 1
4029 6043 6044 1
4030 6043 6045 1
4031 6046 6047 1
4032 6046 6048 1
4033 6049 6050 1
4034 6049 6051 1
4035 6052 6053 1
4036 6052 6054 1
4037 6055 6056 1
4038 6055 6057 1
4039 6058 6059 1
4040 6058 6060 1
4041 6061 6062 1
4042 6061 6063 1
4043 6064 6065 1
4044 6064 6066 1
4045 6067 6068 1
4046 6067 6069 1
4047 6070 6071 1
4048 6070 6072 1
4049 6073 6074 1
4050 6073 6075 1
4051 6076 6077 1
4052 6076 6078 1
4053 6079 6080 1
4054 6079 6081 1
4055 6082 6083 1
4056 6082 6084 1
4057 6085 6086 1
4058 6085 6087 1
4059 6088 6089 1
4060 6088 6090 1
4061 6091 6092 1
4062 6091 6093 1
4063 6094 6095 1
4064 6094 6096 1
4065 6097 6098 1
4066 6097 6099 1
4067 6100 6101 1
4068 6100 6102 1
4069 6103 6104 1
4070 6103 6105 1
4071 6106 6107 1
4072 6106 6108 1
4073 6109 6110 1
4074 6109 6111 1
4075 6112 6113 1
4076 6112 6114 1
4077 6115 6116 1
4078 6115 6117 1
4079 6118 6119 1
4080 6118 6120 1
4081 6121 6122 1
4082 6121 6123 1
4083 6124 6125 1
4084 6124 6126 1
4085 6127 6128 1
4086 6127 6129 1
4087 6130 6131 1
4088 6130 6132 1
4089 6133 6134 1
4090 6133 6135 1
4091 6136 6137 1
4092 6136 6138 1
4093 6139 6140 1
4094 6139 6141 1
4095 6142 6143 1
4096 6142 6144 1
4097 6145 6146 1
4098 6145 6147 1
4099 6148 6149 1
4100 6148 6150 1
4101 6151 6152 1
4102 6151 6153 1
4103 6154 6155 1
4104 6154 6156 1
4105 6157 6158 1
4106 6157 6159 1
4107 6160 6161 1
4108 6160 6162 1
4109 6163 6164 1
4110 6163 6165 1
4111 6166 6167 1
4112 6166 6168 1
4113 6169 6170 1
4114 6169 6171 1
4115 6172 6173 1
4116 6172 6174 1
4117 6175 6176 1
4118 6175 6177 1
4119 6178 6179 1
4120 6178 6180 1
4121 6181 6182 1
4122 6181 6183 1
4123 6184 6185 1
4124 6184 6186 1
4125 6187 6188 1
4126 6187 6189 1
4127 6190 6191 1
4128 6190 6192 1
4129 6193 6194 1
4130 6193 6195 1
4131 6196 6197 1
4132 6196 6198 1
4133 6199 6200 1
4134 6199 6201 1
4135 6202 6203 1
4136 6202 6204 1
4137 6205 6206 1
4138 6205 6207 1
4139 6208 6209 1
4140 6208 6210 1
4141 6211 6212 1
4142 6211 6213 1
4143 6214 6215 1
4144 6214 6216 1
4145 6217 6218 1
4146 6217 6219 1
4147 6220 6221 1
4148 6220 6222 1
4149 6223 6224 1
4150 6223 6225 1
4151 6226 6227 1
4152 6226 6228 1
4153 6229 6230 1
4154 6229 6231 1
4155 6232 6233 1
4156 6232 6234 1
4157 6235 6236 1
4158 6235 6237 1
4159 6238 6239 1
4160 6238 6240 1
4161 6241 6242 1
4162 6241 6243 1
4163 6244 6245 1
4164 6244 6246 1
4165 6247 6248 1
4166 6247 6249 1
4167 6250 6251 1
4168 6250 6252 1
4169 6253 6254 1
4170 6253 6255 1
4171 6256 6257 1
4172 6256 6258 1
4173 6259 6260 1
4174 6259 6261 1
4175 6262 6263 1
4176 6262 6264 1
4177 6265 6266 1
4178 6265 6267 1
4179 6268 6269 1
4180 6268 6270 1
4181 6271 6272 1
4182 6271 6273 1
4183 6274 6275 1
4184 6274 6276 1
4185 6277 6278 1
4186 6277 6279 1
4187 6280 6281 1
4188 6280 6282 1
4189 6283 6284 1
4190 6283 6285 1
4191 6286 6287 1
4192 6286 6288 1
4193 6289 6290 1
4194 6289 6291 1
4195 6292 6293 1
4196 6292 6294 1
4197 6295 6296 1
4198 6295 6297 1
4199 6298 6299 1
4200 6298 6300 1
4201 6301 6302 1
4202 6301 6303 1
4203 6304 6305 1
4204 6304 6306 1
4205 6307 6308 1
4206 6307 6309 1
4207 6310 6311 1
4208 6310 6312 1
4209 6313 6314 1
4210 6313 6315 1
4211 6316 6317 1
4212 6316 6318 1
4213 6319 6321 1
4214 6319 6320 1
4215 6322 6323 1
4216 6322 6324 1
4217 6325 6326 1
4218 6325 6327 1
4219 6328 6329 1
4220 6328 6330 1
4221 6331 6332 1
4222 6331 6333 1
4223 6334 6335 1
4224 6334 6336 1
4225 6337 6338 1
4226 6337 6339 1
4227 6340 6341 1
4228 6340 6342 1
4229 6343 6344 1
4230 6343 6345 1
4231 6346 6347 1
4232 6346 6348 1
4233 6349 6350 1
4234 6349 6351 1
4235 6352 6353 1
4236 6352 6354 1
4237 6355 6356 1
4238 6355 6357 1
4239 6358 6359 1
4240 6358 6360 1
4241 6361 6362 1
4242 6361 6363 1
4243 6364 6365 1
4244 6364 6366 1
4245 6367 6368 1
4246 6367 6369 1
4247 6370 6371 1
4248 6370 6372 1
4249 6373 6374 1
4250 6373 6375 1
4251 6376 6377 1
4252 6376 6378 1
4253 6379 6380 1
4254 6379 6381 1
4255 6382 6383 1
4256 6382 6384 1
4257 6385 6386 1
4258 6385 6387 1
4259 6388 6389 1
4260 6388 6390 1
4261 6391 6392 1
4262 6391 6393 1
4263 6394 6395 1
4264 6394 6396 1
4265 6397 6398 1
4266 6397 6399 1
4267 6400 6401 1
4268 6400 6402 1
4269 6403 6404 1
4270 6403 6405 1
4271 6406 6407 1
4272 6406 6408 1
4273 6409 6410 1
4274 6409 6411 1
4275 6412 6413 1
4276 6412 6414 1
4277 6415 6416 1
4278 6415 6417 1
4279 6418 6419 1
4280 6418 6420 1
4281 6421 6422 1
4282 6421 6423 1
4283 6424 6425 1
4284 6424 6426 1
4285 6427 6428 1
4286 6427 6429 1
4287 6430 6431 1
4288 6430 6432 1
4289 6433 6434 1
4290 6433 6435 1
4291 6436 6437 1
4292 6436 6438 1
4293 6439 6440 1
4294 6439 6441 1
4295 6442 6443 1
4296 6442 6444 1
4297 6445 6446 1
4298 6445 6447 1
4299 6448 6449 1
4300 6448 6450 1
4301 6451 6452 1
4302 6451 6453 1
4303 6454 6455 1
4304 6454 6456 1
4305 6457 6458 1
4306 6457 6459 1
4307 6460 6461 1
4308 6460 6462 1
4309 6463 6464 1
4310 6463 6465 1
4311 6466 6467 1
4312 6466 6468 1
4313 6469 6470 1
4314 6469 6471 1
4315 6472 6473 1
4316 6472 6474 1
4317 6475 6476 1
4318 6475 6477 1
4319 6478 6479 1
4320 6478 6480 1
4321 6481 6482 1
4322 6481 6483 1
4323 6484 6485 1
4324 6484 6486 1
4325 6487 6488 1
4326 6487 6489 1
4327 6490 6491 1
4328 6490 6492 1
4329 6493 6494 1
4330 6493 6495 1
4331 6496 6497 1
4332 6496 6498 1
4333 6499 6500 1
4334 6499 6501 1
4335 6502 6503 1
4336 6502 6504 1
4337 6505 6506 1
4338 6505 6507 1
4339 6508 6509 1
4340 6508 6510 1
4341 6511 6512 1
4342 6511 6513 1
4343 6514 6515 1
4344 6514 6516 1
4345 6517 6518 1
4346 6517 6519 1
4347 6520 6521 1
4348 6520 6522 1
4349 6523 6524 1
4350 6523 6525 1
4351 6526 6527 1
4352 6526 6528 1
4353 6529 6530 1
4354 6529 6531 1
4355 6532 6533 1
4356 6532 6534 1
4357 6535 6536 1
4358 6535 6537 1
4359 6538 6539 1
4360 6538 6540 1
4361 6541 6542 1
4362 6541 6543 1
4363 6544 6545 1
4364 6544 6546 1
4365 6547 6548 1
4366 6547 6549 1
4367 6550 6551 1
4368 6550 6552 1
4369 6553 6554 1
4370 6553 6555 1
4371 6556 6557 1
4372 6556 6558 1
4373 6559 6560 1
4374 6559 6561 1
4375 6562 6563 1
4376 6562 6564 1
4377 6565 6566 1
4378 6565 6567 1
4379 6568 6569 1
4380 6568 6570 1
4381 6571 6572 1
4382 6571 6573 1
4383 6574 6575 1
4384 6574 6576 1
4385 6577 6578 1
4386 6577 6579 1
4387 6580 6581 1
4388 6580 6582 1
4389 6583 6584 1
4390 6583 6585 1
4391 6586 6587 1
4392 6586 6588 1
4393 6589 6590 1
4394 6589 6591 1
4395 6592 6593 1
4396 6592 6594 1
4397 6595 6596 1
4398 6595 6597 1
4399 6598 6599 1
4400 6598 6600 1
4401 6601 6602 1
4402 6601 6603 1
4403 6604 6605 1
4404 6604 6606 1
4405 6607 6608 1
4406 6607 6609 1
4407 6610 6611 1
4408 6610 6612 1
4409 6613 6614 1
4410 6613 6615 1
4411 6616 6617 1
4412 6616 6618 1
4413 6619 6620 1
4414 6619 6621 1
4415 6622 6623 1
4416 6622 6624 1
4417 6625 6626 1
4418 6625 6627 1
4419 6628 6629 1
4420 6628 6630 1
4421 6631 6632 1
4422 6631 6633 1
4423 6634 6635 1
4424 6634 6636 1
4425 6637 6638 1
4426 6637 6639 1
4427 6640 6641 1
4428 6640 6642 1
4429 6643 6644 1
4430 6643 6645 1
4431 6646 6647 1
4432 6646 6648 1
4433 6649 6650 1
4434 6649 6651 1
4435 6652 6653 1
4436 6652 6654 1
4437 6655 6656 1
4438 6655 6657 1
4439 6658 6659 1
4440 6658 6660 1
4441 6661 6662 1
4442 6661 6663 1
4443 6664 6665 1
4444 6664 6666 1
4445 6667 6668 1
4446 6667 6669 1
4447 6670 6671 1
4448 6670 6672 1
4449 6673 6674 1
4450 6673 6675 1
4451 6676 6677 1
4452 6676 6678 1
4453 6679 6680 1
4454 6679 6681 1
4455 6682 6683 1
4456 6682 6684 1
4457 6685 6686 1
4458 6685 6687 1
4459 6688 6689 1
4460 6688 6690 1
4461 6691 6692 1
4462 6691 6693 1
4463 6694 6695 1
4464 6694 6696 1
4465 6697 6698 1
4466 6697 6699 1
4467 6700 6702 1
4468 6700 6701 1
4469 6703 6704 1
4470 6703 6705 1
4471 6706 6707 1
4472 6706 6708 1
4473 6709 6710 1
4474 6709 6711 1
4475 6712 6713 1
4476 6712 6714 1
4477 6715 6716 1
4478 6715 6717 1
4479 6718 6719 1
4480 6718 6720 1
4481 6721 6722 1
4482 6721 6723 1
4483 6724 6725 1
4484 6724 6726 1
4485 6727 6728 1
4486 6727 6729 1
4487 6730 6731 1
4488 6730 6732 1
4489 6733 6734 1
4490 6733 6735 1
4491 6736 6737 1
4492 6736 6738 1
4493 6739 6740 1
4494 6739 6741 1
4495 6742 6743 1
4496 6742 6744 1
4497 6745 6746 1
4498 6745 6747 1
4499 6748 6749 1
4500 6748 6750 1
4501 6751 6752 1
4502 6751 6753 1
4503 6754 6755 1
4504 6754 6756 1
4505 6757 6758 1
4506 6757 6759 1
4507 6760 6761 1
4508 6760 6762 1
4509 6763 6764 1
4510 6763 6765 1
4511 6766 6767 1
4512 6766 6768 1
4513 6769 6770 1
4514 6769 6771 1
4515 6772 6773 1
4516 6772 6774 1
4517 6775 6776 1
4518 6775 6777 1
4519 6778 6779 1
4520 6778 6780 1
4521 6781 6782 1
4522 6781 6783 1
4523 6784 6785 1
4524 6784 6786 1
4525 6787 6788 1
4526 6787 6789 1
4527 6790 6791 1
4528 6790 6792 1
4529 6793 6794 1
4530 6793 6795 1
4531 6796 6797 1
4532 6796 6798 1
4533 6799 6800 1
4534 6799 6801 1
4535 6802 6803 1
4536 6802 6804 1
4537 6805 6806 1
4538 6805 6807 1
4539 6808 6809 1
4540 6808 6810 1
4541 6811 6812 1
4542 6811 6813 1
4543 6814 6815 1
4544 6814 6816 1
4545 6817 6818 1
4546 6817 6819 1
4547 6820 6821 1
4548 6820 6822 1
4549 6823 6824 1
4550 6823 6825 1
4551 6826 6827 1
4552 6826 6828 1
4553 6829 6830 1
4554 6829 6831 1
4555 6832 6833 1
4556 6832 6834 1
4557 6835 6836 1
4558 6835 6837 1
4559 6838 6839 1
4560 6838 6840 1
4561 6841 6842 1
4562 6841 6843 1
4563 6844 6845 1
4564 6844 6846 1
4565 6847 6848 1
4566 6847 6849 1
4567 6850 6851 1
4568 6850 6852 1
4569 6853 6854 1
4570 6853 6855 1
4571 6856 6857 1
4572 6856 6858 1
4573 6859 6860 1
4574 6859 6861 1
4575 6862 6863 1
4576 6862 6864 1
4577 6865 6866 1
4578 6865 6867 1
4579 6868 6869 1
4580 6868 6870 1
4581 6871 6872 1
4582 6871 6873 1
4583 6874 6875 1
4584 6874 6876 1
4585 6877 6878 1
4586 6877 6879 1
4587 6880 6881 1
4588 6880 6882 1
4589 6883 6884 1
4590 6883 6885 1
4591 6886 6887 1
4592 6886 6888 1
4593 6889 6890 1
4594 6889 6891 1
4595 6892 6893 1
4596 6892 6894 1
4597 6895 6896 1
4598 6895 6897 1
4599 6898 6899 1
4600 6898 6900 1
4601 6901 6902 1
4602 6901 6903 1
4603 6904 6905 1
4604 6904 6906 1
4605 6907 6908 1
4606 6907 6909 1
4607 6910 6911 1
4608 6910 6912 1
4609 6913 6914 1
4610 6913 6915 1
4611 6916 6917 1
4612 6916 6918 1
4613 6919 6920 1
4614 6919 6921 1
4615 6922 6923 1
4616 6922 6924 1
4617 6925 6926 1
4618 6925 6927 1
4619 6928 6929 1
4620 6928 6930 1
4621 6931 6932 1
4622 6931 6933 1
4623 6934 6935 1
4624 6934 6936 1
4625 6937 6938 1
4626 6937 6939 1
4627 6940 6941 1
4628 6940 6942 1
4629 6943 6944 1
4630 6943 6945 1
4631 6946 6947 1
4632 6946 6948 1
4633 6949 6950 1
4634 6949 6951 1
4635 6952 6953 1
4636 6952 6954 1
4637 6955 6956 1
4638 6955 6957 1
4639 6958 6959 1
4640 6958 6960 1
4641 6961 6962 1
4642 6961 6963 1
4643 6964 6965 1
4644 6964 6966 1
4645 6967 6968 1
4646 6967 6969 1
4647 6970 6971 1
4648 6970 6972 1
4649 6973 6974 1
4650 6973 6975 1
4651 6976 6977 1
4652 6976 6978 1
4653 6979 6980 1
4654 6979 6981 1
4655 6982 6983 1
4656 6982 6984 1
4657 6985 6986 1
4658 6985 6987 1
4659 6988 6989 1
4660 6988 6990 1
4661 6991 6992 1
4662 6991 6993 1
4663 6994 6995 1
4664 6994 6996 1
4665 6997 6998 1
4666 6997 6999 1
4667 7000 7001 1
4668 7000 7002 1
4669 7003 7004 1
4670 7003 7005 1
4671 7006 7007 1
4672 7006 7008 1
4673 7009 7010 1
4674 7009 7011 1
4675 7012 7013 1
4676 7012 7014 1
4677 7015 7016 1
4678 7015 7017 1
4679 7018 7019 1
4680 7018 7020 1
4681 7021 7022 1
4682 7021 7023 1
4683 7024 7025 1
4684 7024 7026 1
4685 7027 7028 1
4686 7027 7029 1
4687 7030 7031 1
4688 7030 7032 1
4689 7033 7034 1
4690 7033 7035 1
4691 7036 7037 1
4692 7036 7038 1
4693 7039 7040 1
4694 7039 7041 1
4695 7042 7043 1
4696 7042 7044 1
4697 7045 7046 1
4698 7045 7047 1
4699 7048 7049 1
4700 7048 7050 1
4701 7051 7052 1
4702 7051 7053 1
4703 7054 7055 1
4704 7054 7056 1
4705 7057 7058 1
4706 7057 7059 1
4707 7060 7061 1
4708 7060 7062 1
4709 7063 7064 1
4710 7063 7065 1
4711 7066 7067 1
4712 7066 7068 1
4713 7069 7070 1
4714 7069 7071 1
4715 7072 7073 1
4716 7072 7074 1
4717 7075 7076 1
4718 7075 7077 1
4719 7078 7079 1
4720 7078 7080 1
4721 7081 7082 1
4722 7081 7083 1
4723 7084 7085 1
4724 7084 7086 1
4725 7087 7088 1
4726 7087 7089 1
4727 7090 7091 1
4728 7090 7092 1
4729 7093 7094 1
4730 7093 7095 1
4731 7096 7097 1
4732 7096 7098 1
4733 7099 7101 1
4734 7099 7100 1
4735 7102 7103 1
4736 7102 7104 1
4737 7105 7106 1
4738 7105 7107 1
4739 7108 7109 1
4740 7108 7110 1
4741 7111 7112 1
4742 7111 7113 1
4743 7114 7115 1
4744 7114 7116 1
4745 7117 7118 1
4746 7117 7119 1
4747 7120 7121 1
4748 7120 7122 1
4749 7123 7124 1
4750 7123 7125 1
4751 7126 7127 1
4752 7126 7128 1
4753 7129 7130 1
4754 7129 7131 1
4755 7132 7133 1
4756 7132 7134 1
4757 7135 7136 1
4758 7135 7137 1
4759 7138 7139 1
4760 7138 7140 1
4761 7141 7142 1
4762 7141 7143 1
4763 7144 7145 1
4764 7144 7146 1
4765 7147 7148 1
4766 7147 7149 1
4767 7150 7151 1
4768 7150 7152 1
4769 7153 7154 1
4770 7153 7155 1
4771 7156 7157 1
4772 7156 7158 1
4773 7159 7160 1
4774 7159 7161 1
4775 7162 7163 1
4776 7162 7164 1
4777 7165 7166 1
4778 7165 7167 1
4779 7168 7169 1
4780 7168 7170 1
4781 7171 7172 1
4782 7171 7173 1
4783 7174 7175 1
4784 7174 7176 1
4785 7177 7178 1
4786 7177 7179 1
4787 7180 7181 1
4788 7180 7182 1
4789 7183 7184 1
4790 7183 7185 1
4791 7186 7187 1
4792 7186 7188 1
4793 7189 7190 1
4794 7189 7191 1
4795 7192 7193 1
4796 7192 7194 1
4797 7195 7196 1
4798 7195 7197 1
4799 7198 7199 1
4800 7198 7200 1
4801 7201 7202 1
4802 7201 7203 1
4803 7204 7205 1
4804 7204 7206 1
4805 7207 7208 1
4806 7207 7209 1
4807 7210 7211 1
4808 7210 7212 1
4809 7213 7214 1
4810 7213 7215 1
4811 7216 7217 1
4812 7216 7218 1
4813 7219 7220 1
4814 7219 7221 1
4815 7222 7223 1
4816 7222 7224 1
4817 7225 7226 1
4818 7225 7227 1
4819 7228 7229 1
4820 7228 7230 1
4821 7231 7232 1
4822 7231 7233 1
4823 7234 7235 1
4824 7234 7236 1
4825 7237 7238 1
4826 7237 7239 1
4827 7240 7241 1
4828 7240 7242 1
4829 7243 7244 1
4830 7243 7245 1
4831 7246 7247 1
4832 7246 7248 1
4833 7249 7250 1
4834 7249 7251 1
4835 7252 7253 1
4836 7252 7254 1
4837 7255 7256 1
4838 7255 7257 1
4839 7258 7259 1
4840 7258 7260 1
4841 7261 7262 1
4842 7261 7263 1
4843 7264 7265 1
4844 7264 7266 1
4845 7267 7268 1
4846 7267 7269 1
4847 7270 7271 1
4848 7270 7272 1
4849 7273 7274 1
4850 7273 7275 1
4851 7276 7277 1
4852 7276 7278 1
4853 7279 7280 1
4854 7279 7281 1
4855 7282 7283 1
4856 7282 7284 1
4857 7285 7286 1
4858 7285 7287 1
4859 7288 7289 1
4860 7288 7290 1
4861 7291 7292 1
4862 7291 7293 1
4863 7294 7295 1
4864 7294 7296 1
4865 7297 7298 1
4866 7297 7299 1
4867 7300 7301 1
4868 7300 7302 1
4869 7303 7304 1
4870 7303 7305 1
4871 7306 7307 1
4872 7306 7308 1
4873 7309 7310 1
4874 7309 7311 1
4875 7312 7313 1
4876 7312 7314 1
4877 7315 7316 1
4878 7315 7317 1
4879 7318 7319 1
4880 7318 7320 1
4881 7321 7322 1
4882 7321 7323 1
4883 7324 7325 1
4884 7324 7326 1
4885 7327 7328 1
4886 7327 7329 1
4887 7330 7331 1
4888 7330 7332 1
4889 7333 7334 1
4890 7333 7335 1
4891 7336 7337 1
4892 7336 7338 1
4893 7339 7340 1
4894 7339 7341 1
4895 7342 7343 1
4896 7342 7344 1
4897 7345 7346 1
4898 7345 7347 1
4899 7348 7349 1
4900 7348 7350 1
4901 7351 7352 1
4902 7351 7353 1
4903 7354 7355 1
4904 7354 7356 1
4905 7357 7358 1
4906 7357 7359 1
4907 7360 7361 1
4908 7360 7362 1
4909 7363 7364 1
4910 7363 7365 1
4911 7366 7367 1
4912 7366 7368 1
4913 7369 7370 1
4914 7369 7371 1
4915 7372 7373 1
4916 7372 7374 1
4917 7375 7376 1
4918 7375 7377 1
4919 7378 7379 1
4920 7378 7380 1
4921 7381 7382 1
4922 7381 7383 1
4923 7384 7385 1
4924 7384 7386 1
4925 7387 7388 1
4926 7387 7389 1
4927 7390 7391 1
4928 7390 7392 1
4929 7393 7394 1
4930 7393 7395 1
4931 7396 7397 1
4932 7396 7398 1
4933 7399 7400 1
4934 7399 7401 1
4935 7402 7403 1
4936 7402 7404 1
4937 7405 7406 1
4938 7405 7407 1
4939 7408 7409 1
4940 7408 7410 1
4941 7411 7412 1
4942 7411 7413 1
4943 7414 7415 1
4944 7414 7416 1
4945 7417 7418 1
4946 7417 7419 1
4947 7420 7421 1
4948 7420 7422 1
4949 7423 7424 1
4950 7423 7425 1
4951 7426 7427 1
4952 7426 7428 1
4953 7429 7430 1
4954 7429 7431 1
4955 7432 7433 1
4956 7432 7434 1
4957 7435 7436 1
4958 7435 7437 1
4959 7438 7439 1
4960 7438 7440 1
4961 7441 7442 1
4962 7441 7443 1
4963 7444 7445 1
4964 7444 7446 1
4965 7447 7448 1
4966 7447 7449 1
4967 7450 7451 1
4968 7450 7452 1
4969 7453 7454 1
4970 7453 7455 1
4971 7456 7457 1
4972 7456 7458 1
4973 7459 7460 1
4974 7459 7461 1
4975 7462 7463 1
4976 7462 7464 1
4977 7465 7466 1
4978 7465 7467 1
4979 7468 7469 1
4980 7468 7470 1
4981 7471 7472 1
4982 7471 7473 1
4983 7474 7475 1
4984 7474 7476 1
4985 7477 7478 1
4986 7477 7479 1
4987 7480 7481 1
4988 7480 7482 1
4989 7483 7484 1
4990 7483 7485 1
4991 7486 7487 1
4992 7486 7488 1
4993 7489 7490 1
4994 7489 7491 1
4995 7492 7493 1
4996 7492 7494 1
4997 7495 7496 1
4998 7495 7497 1
4999 7498 7499 1
5000 7498 7500 1
5001 7501 7502 1
5002 7501 7503 1
5003 7504 7505 1
5004 7504 7506 1
5005 7507 7508 1
5006 7507 7509 1
5007 7510 7511 1
5008 7510 7512 1
5009 7513 7514 1
5010 7513 7515 1
5011 7516 7517 1
5012 7516 7518 1
5013 7519 7520 1
5014 7519 7521 1
5015 7522 7523 1
5016 7522 7524 1
5017 7525 7526 1
5018 7525 7527 1
5019 7528 7529 1
5020 7528 7530 1
5021 7531 7532 1
5022 7531 7533 1
5023 7534 7535 1
5024 7534 7536 1
5025 7537 7538 1
5026 7537 7539 1
5027 7540 7541 1
5028 7540 7542 1
5029 7543 7544 1
5030 7543 7545 1
5031 7546 7547 1
5032 7546 7548 1
5033 7549 7550 1
5034 7549 7551 1
5035 7552 7553 1
5036 7552 7554 1
5037 7555 7556 1
5038 7555 7557 1
5039 7558 7559 1
5040 7558 7560 1
5041 7561 7562 1
5042 7561 7563 1
5043 7564 7565 1
5044 7564 7566 1
5045 7567 7568 1
5046 7567 7569 1
5047 7570 7571 1
5048 7570 7572 1
5049 7573 7574 1
5050 7573 7575 1
5051 7576 7577 1
5052 7576 7578 1
5053 7579 7580 1
5054 7579 7581 1
5055 7582 7583 1
5056 7582 7584 1
5057 7585 7586 1
5058 7585 7587 1
5059 7588 7589 1
5060 7588 7590 1
5061 7591 7592 1
5062 7591 7593 1
5063 7594 7595 1
5064 7594 7596 1
5065 7597 7598 1
5066 7597 7599 1
5067 7600 7601 1
5068 7600 7602 1
5069 7603 7604 1
5070 7603 7605 1
5071 7606 7607 1
5072 7606 7608 1
5073 7609 7610 1
5074 7609 7611 1
5075 7612 7613 1
5076 7612 7614 1
5077 7615 7616 1
5078 7615 7617 1
5079 7618 7619 1
5080 7618 7620 1
5081 7621 7622 1
5082 7621 7623 1
5083 7624 7625 1
5084 7624 7626 1
5085 7627 7628 1
5086 7627 7629 1
5087 7630 7631 1
5088 7630 7632 1
5089 7633 7634 1
5090 7633 7635 1
5091 7636 7637 1
5092 7636 7638 1
5093 7639 7640 1
5094 7639 7641 1
5095 7642 7643 1
5096 7642 7644 1
5097 7645 7646 1
5098 7645 7647 1
5099 7648 7649 1
5100 7648 7650 1
5101 7651 7652 1
5102 7651 7653 1
5103 7654 7655 1
5104 7654 7656 1
5105 7657 7658 1
5106 7657 7659 1
5107 7660 7661 1
5108 7660 7662 1
5109 7663 7664 1
5110 7663 7665 1
5111 7666 7667 1
5112 7666 7668 1
5113 7669 7670 1
5114 7669 7671 1
5115 7672 7673 1
5116 7672 7674 1
5117 7675 7676 1
5118 7675 7677 1
5119 7678 7679 1
5120 7678 7680 1
5121 7681 7682 1
5122 7681 7683 1
5123 7684 7685 1
5124 7684 7686 1
5125 7687 7688 1
5126 7687 7689 1
5127 7690 7691 1
5128 7690 7692 1
5129 7693 7694 1
5130 7693 7695 1
5131 7696 7697 1
5132 7696 7698 1
5133 7699 7700 1
5134 7699 7701 1
5135 7702 7703 1
5136 7702 7704 1
5137 7705 7706 1
5138 7705 7707 1
5139 7708 7709 1
5140 7708 7710 1
5141 7711 7712 1
5142 7711 7713 1
5143 7714 7715 1
5144 7714 7716 1
5145 7717 7718 1
5146 7717 7719 1
5147 7720 7721 1
5148 7720 7722 1
5149 7723 7724 1
5150 7723 7725 1
5151 7726 7727 1
5152 7726 7728 1
5153 7729 7730 1
5154 7729 7731 1
5155 7732 7733 1
5156 7732 7734 1
5157 7735 7736 1
5158 7735 7737 1
5159 7738 7739 1
5160 7738 7740 1
5161 7741 7742 1
5162 7741 7743 1
5163 7744 7745 1
5164 7744 7746 1
5165 7747 7748 1
5166 7747 7749 1
5167 7750 7751 1
5168 7750 7752 1
5169 7753 7754 1
5170 7753 7755 1
5171 7756 7757 1
5172 7756 7758 1
5173 7759 7760 1
5174 7759 7761 1
5175 7762 7763 1
5176 7762 7764 1
5177 7765 7766 1
5178 7765 7767 1
5179 7768 7769 1
5180 7768 7770 1
5181 7771 7772 1
5182 7771 7773 1
5183 7774 7775 1
5184 7774 7776 1
5185 7777 7778 1
5186 7777 7779 1
5187 7780 7781 1
5188 7780 7782 1
5189 7783 7784 1
5190 7783 7785 1
5191 7786 7787 1
5192 7786 7788 1
5193 7789 7790 1
5194 7789 7791 1
5195 7792 7793 1
5196 7792 7794 1
5197 7795 7796 1
5198 7795 7797 1
5199 7798 7799 1
5200 7798 7800 1
5201 7801 7802 1
5202 7801 7803 1
5203 7804 7805 1
5204 7804 7806 1
5205 7807 7808 1
5206 7807 7809 1
5207 7810 7811 1
5208 7810 7812 1
5209 7813 7814 1
5210 7813 7815 1
5211 7816 7817 1
5212 7816 7818 1
5213 7819 7820 1
5214 7819 7821 1
5215 7822 7823 1
5216 7822 7824 1
5217 7825 7826 1
5218 7825 7827 1
5219 7828 7829 1
5220 7828 7830 1
5221 7831 7832 1
5222 7831 7833 1
5223 7834 7836 1
5224 7834 7835 1
5225 7837 7838 1
5226 7837 7839 1
5227 7840 7841 1
5228 7840 7842 1
5229 7843 7844 1
5230 7843 7845 1
5231 7846 7847 1
5232 7846 7848 1
5233 7849 7850 1
5234 7849 7851 1
5235 7852 7853 1
5236 7852 7854 1
5237 7855 7856 1
5238 7855 7857 1
5239 7858 7859 1
5240 7858 7860 1
5241 7861 7862 1
5242 7861 7863 1
5243 7864 7865 1
5244 7864 7866 1
5245 7867 7868 1
5246 7867 7869 1
5247 7870 7871 1
5248 7870 7872 1
5249 7873 7874 1
5250 7873 7875 1
5251 7876 7877 1
5252 7876 7878 1
5253 7879 7880 1
5254 7879 7881 1
5255 7882 7883 1
5256 7882 7884 1
5257 7885 7886 1
5258 7885 7887 1
5259 7888 7889 1
5260 7888 7890 1
5261 7891 7892 1
5262 7891 7893 1
5263 7894 7895 1
5264 7894 7896 1
5265 7897 7898 1
5266 7897 7899 1
5267 7900 7901 1
5268 7900 7902 1
5269 7903 7904 1
5270 7903 7905 1
5271 7906 7907 1
5272 7906 7908 1
5273 7909 7910 1
5274 7909 7911 1
5275 7912 7913 1
5276 7912 7914 1
5277 7915 7916 1
5278 7915 7917 1
5279 7918 7919 1
5280 7918 7920 1
5281 7921 7922 1
5282 7921 7923 1
5283 7924 7925 1
5284 7924 7926 1
5285 7927 7928 1
5286 7927 7929 1
5287 7930 7931 1
5288 7930 7932 1
5289 7933 7934 1
5290 7933 7935 1
5291 7936 7937 1
5292 7936 7938 1
5293 7939 7940 1
5294 7939 7941 1
5295 7942 7943 1
5296 7942 7944 1
5297 7945 7946 1
5298 7945 7947 1
5299 7948 7949 1
5300 7948 7950 1
5301 7951 7952 1
5302 7951 7953 1
5303 7954 7955 1
5304 7954 7956 1
5305 7957 7958 1
5306 7957 7959 1
5307 7960 7961 1
5308 7960 7962 1
5309 7963 7964 1
5310 7963 7965 1
5311 7966 7967 1
5312 7966 7968 1
5313 7969 7970 1
5314 7969 7971 1
5315 7972 7973 1
5316 7972 7974 1
5317 7975 7976 1
5318 7975 7977 1
5319 7978 7979 1
5320 7978 7980 1
5321 7981 7982 1
5322 7981 7983 1
5323 7984 7985 1
5324 7984 7986 1
5325 7987 7988 1
5326 7987 7989 1
5327 7990 7991 1
5328 7990 7992 1
5329 7993 7994 1
5330 7993 7995 1
5331 7996 7997 1
5332 7996 7998 1
5333 7999 8000 1
5334 7999 8001 1
5335 8002 8003 1
5336 8002 8004 1
5337 8005 8006 1
5338 8005 8007 1
5339 8008 8009 1
5340 8008 8010 1
5341 8011 8012 1
5342 8011 8013 1
5343 8014 8015 1
5344 8014 8016 1
5345 8017 8018 1
5346 8017 8019 1
5347 8020 8021 1
5348 8020 8022 1
5349 8023 8024 1
5350 8023 8025 1
5351 8026 8027 1
5352 8026 8028 1
5353 8029 8030 1
5354 8029 8031 1
5355 8032 8033 1
5356 8032 8034 1
5357 8035 8036 1
5358 8035 8037 1
5359 8038 8039 1
5360 8038 8040 1
5361 8041 8042 1
5362 8041 8043 1
5363 8044 8045 1
5364 8044 8046 1
5365 8047 8048 1
5366 8047 8049 1
5367 8050 8051 1
5368 8050 8052 1
5369 8053 8054 1
5370 8053 8055 1
5371 8056 8057 1
5372 8056 8058 1
5373 8059 8060 1
5374 8059 8061 1
5375 8062 8063 1
5376 8062 8064 1
5377 8065 8066 1
5378 8065 8067 1
5379 8068 8069 1
5380 8068 8070 1
5381 8071 8072 1
5382 8071 8073 1
5383 8074 8075 1
5384 8074 8076 1
5385 8077 8078 1
5386 8077 8079 1
5387 8080 8081 1
5388 8080 8082 1
5389 8083 8084 1
5390 8083 8085 1
5391 8086 8087 1
5392 8086 8088 1
5393 8089 8090 1
5394 8089 8091 1
5395 8092 8093 1
5396 8092 8094 1
5397 8095 8096 1
5398 8095 8097 1
5399 8098 8099 1
5400 8098 8100 1
5401 8101 8102 1
5402 8101 8103 1
5403 8104 8105 1
5404 8104 8106 1
5405 8107 8108 1
5406 8107 8109 1
5407 8110 8111 1
5408 8110 8112 1
5409 8113 8114 1
5410 8113 8115 1
5411 8116 8117 1
5412 8116 8118 1
5413 8119 8120 1
5414 8119 8121 1
5415 8122 8123 1
5416 8122 8124 1
5417 8125 8126 1
5418 8125 8127 1
5419 8128 8129 1
5420 8128 8130 1
5421 8131 8132 1
5422 8131 8133 1
5423 8134 8135 1
5424 8134 8136 1
5425 8137 8138 1
5426 8137 8139 1
5427 8140 8141 1
5428 8140 8142 1
5429 8143 8144 1
5430 8143 8145 1
5431 8146 8147 1
5432 8146 8148 1
5433 8149 8150 1
5434 8149 8151 1
5435 8152 8153 1
5436 8152 8154 1
5437 8155 8156 1
5438 8155 8157 1
5439 8158 8159 1
5440 8158 8160 1
5441 8161 8162 1
5442 8161 8163 1
5443 8164 8165 1
5444 8164 8166 1
5445 8167 8168 1
5446 8167 8169 1
5447 8170 8171 1
5448 8170 8172 1
5449 8173 8174 1
5450 8173 8175 1
5451 8176 8177 1
5452 8176 8178 1
5453 8179 8180 1
5454 8179 8181 1
5455 8182 8183 1
5456 8182 8184 1
5457 8185 8186 1
5458 8185 8187 1
5459 8188 8189 1
5460 8188 8190 1
5461 8191 8192 1
5462 8191 8193 1
5463 8194 8195 1
5464 8194 8196 1
5465 8197 8198 1
5466 8197 8199 1
5467 8200 8201 1
5468 8200 8202 1
5469 8203 8204 1
5470 8203 8205 1
5471 8206 8207 1
5472 8206 8208 1
5473 8209 8210 1
5474 8209 8211 1
5475 8212 8213 1
5476 8212 8214 1
5477 8215 8216 1
5478 8215 8217 1
5479 8218 8219 1
5480 8218 8220 1
5481 8221 8222 1
5482 8221 8223 1
5483 8224 8225 1
5484 8224 8226 1
5485 8227 8228 1
5486 8227 8229 1
5487 8230 8231 1
5488 8230 8232 1
5489 8233 8234 1
5490 8233 8235 1
5491 8236 8237 1
5492 8236 8238 1
5493 8239 8240 1
5494 8239 8241 1
5495 8242 8243 1
5496 8242 8244 1
5497 8245 8246 1
5498 8245 8247 1
5499 8248 8249 1
5500 8248 8250 1
5501 8251 8252 1
5502 8251 8253 1
5503 8254 8255 1
5504 8254 8256 1
5505 8257 8258 1
5506 8257 8259 1
5507 8260 8261 1
5508 8260 8262 1
5509 8263 8264 1
5510 8263 8265 1
5511 8266 8267 1
5512 8266 8268 1
5513 8269 8270 1
5514 8269 8271 1
5515 8272 8273 1
5516 8272 8274 1
5517 8275 8276 1
5518 8275 8277 1
5519 8278 8279 1
5520 8278 8280 1
5521 8281 8282 1
5522 8281 8283 1
5523 8284 8285 1
5524 8284 8286 1
5525 8287 8288 1
5526 8287 8289 1
5527 8290 8291 1
5528 8290 8292 1
5529 8293 8294 1
5530 8293 8295 1
5531 8296 8297 1
5532 8296 8298 1
5533 8299 8300 1
5534 8299 8301 1
5535 8302 8303 1
5536 8302 8304 1
5537 8305 8306 1
5538 8305 8307 1
5539 8308 8309 1
5540 8308 8310 1
5541 8311 8312 1
5542 8311 8313 1
5543 8314 8315 1
5544 8314 8316 1
5545 8317 8318 1
5546 8317 8319 1
5547 8320 8321 1
5548 8320 8322 1
5549 8323 8324 1
5550 8323 8325 1
5551 8326 8327 1
5552 8326 8328 1
5553 8329 8330 1
5554 8329 8331 1
5555 8332 8333 1
5556 8332 8334 1
5557 8335 8336 1
5558 8335 8337 1
5559 8338 8339 1
5560 8338 8340 1
5561 8341 8342 1
5562 8341 8343 1
5563 8344 8345 1
5564 8344 8346 1
5565 8347 8348 1
5566 8347 8349 1
5567 8350 8351 1
5568 8350 8352 1
5569 8353 8354 1
5570 8353 8355 1
5571 8356 8357 1
5572 8356 8358 1
5573 8359 8360 1
5574 8359 8361 1
5575 8362 8363 1
5576 8362 8364 1
5577 8365 8366 1
5578 8365 8367 1
5579 8368 8369 1
5580 8368 8370 1
5581 8371 8372 1
5582 8371 8373 1
5583 8374 8375 1
5584 8374 8376 1
5585 8377 8378 1
5586 8377 8379 1
5587 8380 8381 1
5588 8380 8382 1
5589 8383 8384 1
5590 8383 8385 1
5591 8386 8387 1
5592 8386 8388 1
5593 8389 8390 1
5594 8389 8391 1
5595 8392 8393 1
5596 8392 8394 1
5597 8395 8396 1
5598 8395 8397 1
5599 8398 8399 1
5600 8398 8400 1
5601 8401 8402 1
5602 8401 8403 1
5603 8404 8405 1
5604 8404 8406 1
5605 8407 8408 1
5606 8407 8409 1
5607 8410 8411 1
5608 8410 8412 1
5609 8413 8414 1
5610 8413 8415 1
5611 8416 8417 1
5612 8416 8418 1
5613 8419 8420 1
5614 8419 8421 1
5615 8422 8423 1
5616 8422 8424 1
5617 8425 8426 1
5618 8425 8427 1
5619 8428 8429 1
5620 8428 8430 1
5621 8431 8432 1
5622 8431 8433 1
5623 8434 8435 1
5624 8434 8436 1
5625 8437 8438 1
5626 8437 8439 1
5627 8440 8441 1
5628 8440 8442 1
5629 8443 8444 1
5630 8443 8445 1
5631 8446 8447 1
5632 8446 8448 1
5633 8449 8450 1
5634 8449 8451 1
5635 8452 8453 1
5636 8452 8454 1
5637 8455 8456 1
5638 8455 8457 1
5639 8458 8459 1
5640 8458 8460 1
5641 8461 8462 1
5642 8461 8463 1
5643 8464 8465 1
5644 8464 8466 1
5645 8467 8468 1
5646 8467 8469 1
5647 8470 8471 1
5648 8470 8472 1
5649 8473 8474 1
5650 8473 8475 1
5651 8476 8477 1
5652 8476 8478 1
5653 8479 8480 1
5654 8479 8481 1
5655 8482 8483 1
5656 8482 8484 1
5657 8485 8486 1
5658 8485 8487 1
5659 8488 8489 1
5660 8488 8490 1
5661 8491 8492 1
5662 8491 8493 1
5663 8494 8495 1
5664 8494 8496 1
5665 8497 8498 1
5666 8497 8499 1
5667 8500 8501 1
5668 8500 8502 1
5669 8503 8504 1
5670 8503 8505 1
5671 8506 8507 1
5672 8506 8508 1
5673 8509 8510 1
5674 8509 8511 1
5675 8512 8513 1
5676 8512 8514 1
5677 8515 8516 1
5678 8515 8517 1
5679 8518 8519 1
5680 8518 8520 1
5681 8521 8522 1
5682 8521 8523 1
5683 8524 8525 1
5684 8524 8526 1
5685 8527 8528 1
5686 8527 8529 1
5687 8530 8531 1
5688 8530 8532 1
5689 8533 8534 1
5690 8533 8535 1
5691 8536 8537 1
5692 8536 8538 1
5693 8539 8540 1
5694 8539 8541 1
5695 8542 8543 1
5696 8542 8544 1
5697 8545 8546 1
5698 8545 8547 1
5699 8548 8549 1
5700 8548 8550 1
5701 8551 8552 1
5702 8551 8553 1
5703 8554 8555 1
5704 8554 8556 1
5705 8557 8558 1
5706 8557 8559 1
5707 8560 8561 1
5708 8560 8562 1
5709 8563 8564 1
5710 8563 8565 1
5711 8566 8567 1
5712 8566 8568 1
5713 8569 8570 1
5714 8569 8571 1
5715 8572 8573 1
5716 8572 8574 1
5717 8575 8576 1
5718 8575 8577 1
5719 8578 8579 1
5720 8578 8580 1
5721 8581 8582 1
5722 8581 8583 1
5723 8584 8585 1
5724 8584 8586 1
5725 8587 8588 1
5726 8587 8589 1
5727 8590 8591 1
5728 8590 8592 1
5729 8593 8594 1
5730 8593 8595 1
5731 8596 8597 1
5732 8596 8598 1
5733 8599 8600 1
5734 8599 8601 1
5735 8602 8603 1
5736 8602 8604 1
5737 8605 8606 1
5738 8605 8607 1
5739 8608 8609 1
5740 8608 8610 1
5741 8611 8612 1
5742 8611 8613 1
5743 8614 8615 1
5744 8614 8616 1
5745 8617 8618 1
5746 8617 8619 1
5747 8620 8621 1
5748 8620 8622 1
5749 8623 8624 1
5750 8623 8625 1
5751 8626 8627 1
5752 8626 8628 1
5753 8629 8630 1
5754 8629 8631 1
5755 8632 8633 1
5756 8632 8634 1
5757 8635 8636 1
5758 8635 8637 1
5759 8638 8639 1
5760 8638 8640 1
5761 8641 8642 1
5762 8641 8643 1
5763 8644 8645 1
5764 8644 8646 1
5765 8647 8648 1
5766 8647 8649 1
5767 8650 8651 1
5768 8650 8652 1
5769 8653 8654 1
5770 8653 8655 1
5771 8656 8657 1
5772 8656 8658 1
5773 8659 8660 1
5774 8659 8661 1
5775 8662 8663 1
5776 8662 8664 1
5777 8665 8666 1
5778 8665 8667 1
5779 8668 8669 1
5780 8668 8670 1
5781 8671 8672 1
5782 8671 8673 1
5783 8674 8675 1
5784 8674 8676 1
5785 8677 8678 1
5786 8677 8679 1
5787 8680 8681 1
5788 8680 8682 1
5789 8683 8684 1
5790 8683 8685 1
5791 8686 8687 1
5792 8686 8688 1
5793 8689 8690 1
5794 8689 8691 1
5795 8692 8693 1
5796 8692 8694 1
5797 8695 8696 1
5798 8695 8697 1
5799 8698 8699 1
5800 8698 8700 1
5801 8701 8702 1
5802 8701 8703 1
5803 8704 8705 1
5804 8704 8706 1
5805 8707 8708 1
5806 8707 8709 1
5807 8710 8711 1
5808 8710 8712 1
5809 8713 8714 1
5810 8713 8715 1
5811 8716 8717 1
5812 8716 8718 1
5813 8719 8720 1
5814 8719 8721 1
5815 8722 8723 1
5816 8722 8724 1
5817 8725 8726 1
5818 8725 8727 1
5819 8728 8729 1
5820 8728 8730 1
5821 8731 8732 1
5822 8731 8733 1
5823 8734 8735 1
5824 8734 8736 1
5825 8737 8738 1
5826 8737 8739 1
5827 8740 8741 1
5828 8740 8742 1
5829 8743 8744 1
5830 8743 8745 1
5831 8746 8747 1
5832 8746 8748 1
5833 8749 8750 1
5834 8749 8751 1
5835 8752 8753 1
5836 8752 8754 1
5837 8755 8756 1
5838 8755 8757 1
5839 8758 8759 1
5840 8758 8760 1
5841 8761 8762 1
5842 8761 8763 1
5843 8764 8765 1
5844 8764 8766 1
5845 8767 8768 1
5846 8767 8769 1
5847 8770 8771 1
5848 8770 8772 1
5849 8773 8774 1
5850 8773 8775 1
5851 8776 8777 1
5852 8776 8778 1
5853 8779 8780 1
5854 8779 8781 1
5855 8782 8783 1
5856 8782 8784 1
5857 8785 8786 1
5858 8785 8787 1
5859 8788 8789 1
5860 8788 8790 1
5861 8791 8792 1
5862 8791 8793 1
5863 8794 8795 1
5864 8794 8796 1
5865 8797 8798 1
5866 8797 8799 1
5867 8800 8801 1
5868 8800 8802 1
5869 8803 8804 1
5870 8803 8805 1
5871 8806 8807 1
5872 8806 8808 1
5873 8809 8810 1
5874 8809 8811 1
5875 8812 8813 1
5876 8812 8814 1
5877 8815 8816 1
5878 8815 8817 1
5879 8818 8819 1
5880 8818 8820 1
5881 8821 8822 1
5882 8821 8823 1
5883 8824 8825 1
5884 8824 8826 1
5885 8827 8828 1
5886 8827 8829 1
5887 8830 8831 1
5888 8830 8832 1
5889 8833 8834 1
5890 8833 8835 1
5891 8836 8837 1
5892 8836 8838 1
5893 8839 8840 1
5894 8839 8841 1
5895 8842 8843 1
5896 8842 8844 1
5897 8845 8846 1
5898 8845 8847 1
5899 8848 8849 1
5900 8848 8850 1
5901 8851 8852 1
5902 8851 8853 1
5903 8854 8855 1
5904 8854 8856 1
5905 8857 8858 1
5906 8857 8859 1
5907 8860 8861 1
5908 8860 8862 1
5909 8863 8864 1
5910 8863 8865 1
5911 8866 8867 1
5912 8866 8868 1
5913 8869 8870 1
5914 8869 8871 1
5915 8872 8873 1
5916 8872 8874 1
5917 8875 8876 1
5918 8875 8877 1
5919 8878 8879 1
5920 8878 8880 1
5921 8881 8882 1
5922 8881 8883 1
5923 8884 8885 1
5924 8884 8886 1
5925 8887 8888 1
5926 8887 8889 1
5927 8890 8891 1
5928 8890 8892 1
5929 8893 8894 1
5930 8893 8895 1
5931 8896 8897 1
5932 8896 8898 1
5933 8899 8900 1
5934 8899 8901 1
5935 8902 8903 1
5936 8902 8904 1
5937 8905 8906 1
5938 8905 8907 1
5939 8908 8909 1
5940 8908 8910 1
5941 8911 8912 1
5942 8911 8913 1
5943 8914 8915 1
5944 8914 8916 1
5945 8917 8918 1
5946 8917 8919 1
5947 8920 8921 1
5948 8920 8922 1
5949 8923 8924 1
5950 8923 8925 1
5951 8926 8927 1
5952 8926 8928 1
5953 8929 8930 1
5954 8929 8931 1
5955 8932 8933 1
5956 8932 8934 1
5957 8935 8936 1
5958 8935 8937 1
5959 8938 8939 1
5960 8938 8940 1
5961 8941 8942 1
5962 8941 8943 1
5963 8944 8945 1
5964 8944 8946 1
5965 8947 8948 1
5966 8947 8949 1
5967 8950 8951 1
5968 8950 8952 1
5969 8953 8954 1
5970 8953 8955 1
5971 8956 8957 1
5972 8956 8958 1
5973 8959 8960 1
5974 8959 8961 1
5975 8962 8963 1
5976 8962 8964 1
5977 8965 8967 1
5978 8965 8966 1
5979 8968 8969 1
5980 8968 8970 1
5981 8971 8972 1
5982 8971 8973 1
5983 8974 8975 1
5984 8974 8976 1
5985 8977 8978 1
5986 8977 8979 1
5987 8980 8981 1
5988 8980 8982 1
5989 8983 8984 1
5990 8983 8985 1
5991 8986 8987 1
5992 8986 8988 1
5993 8989 8990 1
5994 8989 8991 1
5995 8992 8993 1
5996 8992 8994 1
5997 8995 8996 1
5998 8995 8997 1
5999 8998 8999 1
6000 8998 9000 1
6001 9001 9002 1
6002 9001 9003 1
6003 9004 9005 1
6004 9004 9006 1
6005 9007 9008 1
6006 9007 9009 1
6007 9010 9011 1
6008 9010 9012 1
6009 9013 9014 1
6010 9013 9015 1
6011 9016 9017 1
6012 9016 9018 1
6013 9019 9020 1
6014 9019 9021 1
6015 9022 9023 1
6016 9022 9024 1
6017 9025 9026 1
6018 9025 9027 1
6019 9028 9029 1
6020 9028 9030 1
6021 9031 9032 1
6022 9031 9033 1
6023 9034 9035 1
6024 9034 9036 1
6025 9037 9038 1
6026 9037 9039 1
6027 9040 9041 1
6028 9040 9042 1
6029 9043 9044 1
6030 9043 9045 1
6031 9046 9047 1
6032 9046 9048 1
6033 9049 9050 1
6034 9049 9051 1
6035 9052 9053 1
6036 9052 9054 1
6037 9055 9056 1
6038 9055 9057 1
6039 9058 9059 1
6040 9058 9060 1
6041 9061 9062 1
6042 9061 9063 1
6043 9064 9065 1
6044 9064 9066 1
6045 9067 9068 1
6046 9067 9069 1
6047 9070 9071 1
6048 9070 9072 1
6049 9073 9074 1
6050 9073 9075 1
6051 9076 9077 1
6052 9076 9078 1
6053 9079 9080 1
6054 9079 9081 1
6055 9082 9083 1
6056 9082 9084 1
6057 9085 9086 1
6058 9085 9087 1
6059 9088 9089 1
6060 9088 9090 1
6061 9091 9092 1
6062 9091 9093 1
6063 9094 9095 1
6064 9094 9096 1
6065 9097 9098 1
6066 9097 9099 1
6067 9100 9101 1
6068 9100 9102 1
6069 9103 9104 1
6070 9103 9105 1
6071 9106 9107 1
6072 9106 9108 1
6073 9109 9110 1
6074 9109 9111 1
6075 9112 9113 1
6076 9112 9114 1
6077 9115 9116 1
6078 9115 9117 1
6079 9118 9119 1
6080 9118 9120 1
6081 9121 9122 1
6082 9121 9123 1
6083 9124 9125 1
6084 9124 9126 1
6085 9127 9128 1
6086 9127 9129 1
6087 9130 9131 1
6088 9130 9132 1
6089 9133 9134 1
6090 9133 9135 1
6091 9136 9137 1
6092 9136 9138 1
6093 9139 9140 1
6094 9139 9141 1
6095 9142 9143 1
6096 9142 9144 1
6097 9145 9146 1
6098 9145 9147 1
6099 9148 9149 1
6100 9148 9150 1
6101 9151 9152 1
6102 9151 9153 1
6103 9154 9155 1
6104 9154 9156 1
6105 9157 9158 1
6106 9157 9159 1
6107 9160 9161 1
6108 9160 9162 1
6109 9163 9164 1
6110 9163 9165 1
6111 9166 9167 1
6112 9166 9168 1
6113 9169 9170 1
6114 9169 9171 1
6115 9172 9173 1
6116 9172 9174 1
6117 9175 9176 1
6118 9175 9177 1
6119 9178 9179 1
6120 9178 9180 1
6121 9181 9182 1
6122 9181 9183 1
6123 9184 9185 1
6124 9184 9186 1
6125 9187 9188 1
6126 9187 9189 1
6127 9190 9191 1
6128 9190 9192 1
6129 9193 9194 1
6130 9193 9195 1
6131 9196 9197 1
6132 9196 9198 1
6133 9199 9200 1
6134 9199 9201 1
6135 9202 9203 1
6136 9202 9204 1
6137 9205 9206 1
6138 9205 9207 1
6139 9208 9209 1
6140 9208 9210 1
6141 9211 9212 1
6142 9211 9213 1
6143 9214 9215 1
6144 9214 9216 1
6145 9217 9218 1
6146 9217 9219 1
6147 9220 9221 1
6148 9220 9222 1
6149 9223 9224 1
6150 9223 9225 1
6151 9226 9227 1
6152 9226 9228 1
6153 9229 9230 1
6154 9229 9231 1
6155 9232 9233 1
6156 9232 9234 1
6157 9235 9236 1
6158 9235 9237 1
6159 9238 9239 1
6160 9238 9240 1
6161 9241 9242 1
6162 9241 9243 1
6163 9244 9245 1
6164 9244 9246 1
6165 9247 9248 1
6166 9247 9249 1
6167 9250 9251 1
6168 9250 9252 1
6169 9253 9254 1
6170 9253 9255 1
6171 9256 9257 1
6172 9256 9258 1
6173 9259 9260 1
6174 9259 9261 1
6175 9262 9263 1
6176 9262 9264 1
6177 9265 9266 1
6178 9265 9267 1
6179 9268 9269 1
6180 9268 9270 1
6181 9271 9272 1
6182 9271 9273 1
6183 9274 9275 1
6184 9274 9276 1
6185 9277 9278 1
6186 9277 9279 1
6187 9280 9281 1
6188 9280 9282 1
6189 9283 9284 1
6190 9283 9285 1
6191 9286 9287 1
6192 9286 9288 1
6193 9289 9290 1
6194 9289 9291 1
6195 9292 9293 1
6196 9292 9294 1
6197 9295 9296 1
6198 9295 9297 1
6199 9298 9299 1
6200 9298 9300 1
6201 9301 9302 1
6202 9301 9303 1
6203 9304 9305 1
6204 9304 9306 1
6205 9307 9308 1
6206 9307 9309 1
6207 9310 9311 1
6208 9310 9312 1
6209 9313 9314 1
6210 9313 9315 1
6211 9316 9317 1
6212 9316 9318 1
6213 9319 9320 1
6214 9319 9321 1
6215 9322 9323 1
6216 9322 9324 1
6217 9325 9326 1
6218 9325 9327 1
6219 9328 9329 1
6220 9328 9330 1
6221 9331 9332 1
6222 9331 9333 1
6223 9334 9335 1
6224 9334 9336 1
6225 9337 9338 1
6226 9337 9339 1
6227 9340 9341 1
6228 9340 9342 1
6229 9343 9344 1
6230 9343 9345 1
6231 9346 9347 1
6232 9346 9348 1
6233 9349 9350 1
6234 9349 9351 1
6235 9352 9353 1
6236 9352 9354 1
6237 9355 9356 1
6238 9355 9357 1
6239 9358 9359 1
6240 9358 9360 1
6241 9361 9362 1
6242 9361 9363 1
6243 9364 9365 1
6244 9364 9366 1
6245 9367 9368 1
6246 9367 9369 1
6247 9370 9371 1
6248 9370 9372 1
6249 9373 9374 1
6250 9373 9375 1
6251 9376 9378 1
6252 9376 9377 1
6253 9379 9380 1
6254 9379 9381 1
6255 9382 9383 1
6256 9382 9384 1
6257 9385 9386 1
6258 9385 9387 1
6259 9388 9389 1
6260 9388 9390 1
6261 9391 9392 1
6262 9391 9393 1
6263 9394 9395 1
6264 9394 9396 1
6265 9397 9398 1
6266 9397 9399 1
6267 9400 9401 1
6268 9400 9402 1
6269 9403 9404 1
6270 9403 9405 1
6271 9406 9407 1
6272 9406 9408 1
6273 9409 9410 1
6274 9409 9411 1
6275 9412 9413 1
6276 9412 9414 1
6277 9415 9416 1
6278 9415 9417 1
6279 9418 9419 1
6280 9418 9420 1
6281 9421 9422 1
6282 9421 9423 1
6283 9424 9425 1
6284 9424 9426 1
6285 9427 9428 1
6286 9427 9429 1
6287 9430 9431 1
6288 9430 9432 1
6289 9433 9434 1
6290 9433 9435 1
6291 9436 9437 1
6292 9436 9438 1
6293 9439 9440 1
6294 9439 9441 1
6295 9442 9443 1
6296 9442 9444 1
6297 9445 9446 1
6298 9445 9447 1
6299 9448 9449 1
6300 9448 9450 1
6301 9451 9452 1
6302 9451 9453 1
6303 9454 9455 1
6304 9454 9456 1
6305 9457 9458 1
6306 9457 9459 1
6307 9460 9461 1
6308 9460 9462 1
6309 9463 9464 1
6310 9463 9465 1
6311 9466 9467 1
6312 9466 9468 1
6313 9469 9470 1
6314 9469 9471 1
6315 9472 9473 1
6316 9472 9474 1
6317 9475 9476 1
6318 9475 9477 1
6319 9478 9479 1
6320 9478 9480 1
6321 9481 9482 1
6322 9481 9483 1
6323 9484 9485 1
6324 9484 9486 1
6325 9487 9488 1
6326 9487 9489 1
6327 9490 9491 1
6328 9490 9492 1
6329 9493 9494 1
6330 9493 9495 1
6331 9496 9497 1
6332 9496 9498 1
6333 9499 9500 1
6334 9499 9501 1
6335 9502 9503 1
6336 9502 9504 1
6337 9505 9506 1
6338 9505 9507 1
6339 9508 9509 1
6340 9508 9510 1
6341 9511 9512 1
6342 9511 9513 1
6343 9514 9515 1
6344 9514 9516 1
6345 9517 9518 1
6346 9517 9519 1
6347 9520 9521 1
6348 9520 9522 1
6349 9523 9524 1
6350 9523 9525 1
6351 9526 9527 1
6352 9526 9528 1
6353 9529 9530 1
6354 9529 9531 1
6355 9532 9533 1
6356 9532 9534 1
6357 9535 9536 1
6358 9535 9537 1
6359 9538 9539 1
6360 9538 9540 1
6361 9541 9542 1
6362 9541 9543 1
6363 9544 9545 1
6364 9544 9546 1
6365 9547 9548 1
6366 9547 9549 1
6367 9550 9551 1
6368 9550 9552 1
6369 9553 9554 1
6370 9553 9555 1
6371 9556 9557 1
6372 9556 9558 1
6373 9559 9560 1
6374 9559 9561 1
6375 9562 9563 1
6376 9562 9564 1
6377 9565 9566 1
6378 9565 9567 1
6379 9568 9569 1
6380 9568 9570 1
6381 9571 9572 1
6382 9571 9573 1
6383 9574 9575 1
6384 9574 9576 1
6385 9577 9578 1
6386 9577 9579 1
6387 9580 9581 1
6388 9580 9582 1
6389 9583 9584 1
6390 9583 9585 1
6391 9586 9587 1
6392 9586 9588 1
6393 9589 9590 1
6394 9589 9591 1
6395 9592 9593 1
6396 9592 9594 1
6397 9595 9596 1
6398 9595 9597 1
6399 9598 9599 1
6400 9598 9600 1
6401 9601 9602 1
6402 9601 9603 1
6403 9604 9605 1
6404 9604 9606 1
6405 9607 9608 1
6406 9607 9609 1
6407 9610 9611 1
6408 9610 9612 1
6409 9613 9614 1
6410 9613 9615 1
6411 9616 9617 1
6412 9616 9618 1
6413 9619 9620 1
6414 9619 9621 1
6415 9622 9623 1
6416 9622 9624 1
6417 9625 9626 1
6418 9625 9627 1
6419 9628 9629 1
6420 9628 9630 1
6421 9631 9632 1
6422 9631 9633 1
6423 9634 9635 1
6424 9634 9636 1
6425 9637 9638 1
6426 9637 9639 1
6427 9640 9641 1
6428 9640 9642 1
6429 9643 9644 1
6430 9643 9645 1
6431 9646 9647 1
6432 9646 9648 1
6433 9649 9650 1
6434 9649 9651 1
6435 9652 9653 1
6436 9652 9654 1
6437 9655 9656 1
6438 9655 9657 1
6439 9658 9659 1
6440 9658 9660 1
6441 9661 9662 1
6442 9661 9663 1
6443 9664 9665 1
6444 9664 9666 1
6445 9667 9668 1
6446 9667 9669 1
6447 9670 9671 1
6448 9670 9672 1
6449 9673 9674 1
6450 9673 9675 1
6451 9676 9677 1
6452 9676 9678 1
6453 9679 9680 1
6454 9679 9681 1
6455 9682 9683 1
6456 9682 9684 1
6457 9685 9686 1
6458 9685 9687 1
6459 9688 9689 1
6460 9688 9690 1
6461 9691 9692 1
6462 9691 9693 1
6463 9694 9695 1
6464 9694 9696 1
6465 9697 9698 1
6466 9697 9699 1
6467 9700 9701 1
6468 9700 9702 1
6469 9703 9704 1
6470 9703 9705 1
6471 9706 9707 1
6472 9706 9708 1
6473 9709 9710 1
6474 9709 9711 1
6475 9712 9713 1
6476 9712 9714 1
6477 9715 9716 1
6478 9715 9717 1
6479 9718 9719 1
6480 9718 9720 1
6481 9721 9722 1
6482 9721 9723 1
6483 9724 9726 1
6484 9724 9725 1
6485 9727 9728 1
6486 9727 9729 1
6487 9730 9731 1
6488 9730 9732 1
6489 9733 9734 1
6490 9733 9735 1
6491 9736 9737 1
6492 9736 9738 1
6493 9739 9740 1
6494 9739 9741 1
6495 9742 9743 1
6496 9742 9744 1
6497 9745 9746 1
6498 9745 9747 1
6499 9748 9749 1
6500 9748 9750 1
6501 9751 9752 1
6502 9751 9753 1
6503 9754 9755 1
6504 9754 9756 1
6505 9757 9758 1
6506 9757 9759 1
6507 9760 9761 1
6508 9760 9762 1
6509 9763 9764 1
6510 9763 9765 1
6511 9766 9767 1
6512 9766 9768 1
6513 9769 9770 1
6514 9769 9771 1
6515 9772 9773 1
6516 9772 9774 1
6517 9775 9776 1
6518 9775 9777 1
6519 9778 9779 1
6520 9778 9780 1
6521 9781 9782 1
6522 9781 9783 1
6523 9784 9785 1
6524 9784 9786 1
6525 9787 9788 1
6526 9787 9789 1
6527 9790 9791 1
6528 9790 9792 1
6529 9793 9794 1
6530 9793 9795 1
6531 9796 9797 1
6532 9796 9798 1
6533 9799 9800 1
6534 9799 9801 1
6535 9802 9803 1
6536 9802 9804 1
6537 9805 9806 1
6538 9805 9807 1
6539 9808 9809 1
6540 9808 9810 1
6541 9811 9812 1
6542 9811 9813 1
6543 9814 9815 1
6544 9814 9816 1
6545 9817 9818 1
6546 9817 9819 1
6547 9820 9821 1
6548 9820 9822 1
6549 9823 9824 1
6550 9823 9825 1
6551 9826 9828 1
6552 9826 9827 1
6553 9829 9830 1
6554 9829 9831 1
6555 9832 9833 1
6556 9832 9834 1
6557 9835 9836 1
6558 9835 9837 1
6559 9838 9839 1
6560 9838 9840 1
6561 9841 9842 1
6562 9841 9843 1
6563 9844 9845 1
6564 9844 9846 1
6565 9847 9848 1
6566 9847 9849 1
6567 9850 9852 1
6568 9850 9851 1
6569 9853 9854 1
6570 9853 9855 1
6571 9856 9857 1
6572 9856 9858 1
6573 9859 9860 1
6574 9859 9861 1
6575 9862 9863 1
6576 9862 9864 1
6577 9865 9866 1
6578 9865 9867 1
6579 9868 9869 1
6580 9868 9870 1
6581 9871 9872 1
6582 9871 9873 1
6583 9874 9875 1
6584 9874 9876 1
6585 9877 9878 1
6586 9877 9879 1
6587 9880 9881 1
6588 9880 9882 1
6589 9883 9884 1
6590 9883 9885 1
6591 9886 9887 1
6592 9886 9888 1
6593 9889 9890 1
6594 9889 9891 1
6595 9892 9893 1
6596 9892 9894 1
6597 9895 9896 1
6598 9895 9897 1
6599 9898 9899 1
6600 9898 9900 1
6601 9901 9902 1
6602 9901 9903 1
6603 9904 9905 1
6604 9904 9906 1
6605 9907 9908 1
6606 9907 9909 1
6607 9910 9911 1
6608 9910 9912 1
6609 9913 9914 1
6610 9913 9915 1
6611 9916 9917 1
6612 9916 9918 1
6613 9919 9920 1
6614 9919 9921 1
6615 9922 9923 1
6616 9922 9924 1
6617 9925 9926 1
6618 9925 9927 1
6619 9928 9929 1
6620 9928 9930 1
6621 9931 9932 1
6622 9931 9933 1
6623 9934 9935 1
6624 9934 9936 1
6625 9937 9938 1
6626 9937 9939 1
6627 9940 9941 1
6628 9940 9942 1
6629 9943 9944 1
6630 9943 9945 1
6631 9946 9947 1
6632 9946 9948 1
6633 9949 9950 1
6634 9949 9951 1
6635 9952 9953 1
6636 9952 9954 1
6637 9955 9956 1
6638 9955 9957 1
6639 9958 9959 1
6640 9958 9960 1
6641 9961 9962 1
6642 9961 9963 1
6643 9964 9965 1
6644 9964 9966 1
6645 9967 9968 1
6646 9967 9969 1
6647 9970 9971 1
6648 9970 9972 1
6649 9973 9974 1
6650 9973 9975 1
6651 9976 9977 1
6652 9976 9978 1
6653 9979 9980 1
6654 9979 9981 1
6655 9982 9983 1
6656 9982 9984 1
6657 9985 9986 1
6658 9985 9987 1
6659 9988 9989 1
6660 9988 9990 1
6661 9991 9992 1
6662 9991 9993 1
6663 9994 9995 1
6664 9994 9996 1
6665 9997 9998 1
6666 9997 9999 1
6667 10000 10001 1
6668 10000 10002 1
6669 10003 10004 1
6670 10003 10005 1
6671 10006 10007 1
6672 10006 10008 1
6673 10009 10010 1
6674 10009 10011 1
6675 10012 10013 1
6676 10012 10014 1
6677 10015 10016 1
6678 10015 10017 1
6679 10018 10019 1
6680 10018 10020 1
6681 10021 10022 1
6682 10021 10023 1
6683 10024 10025 1
6684 10024 10026 1
6685 10027 10028 1
6686 10027 10029 1
6687 10030 10031 1
6688 10030 10032 1
6689 10033 10034 1
6690 10033 10035 1
6691 10036 10037 1
6692 10036 10038 1
6693 10039 10040 1
6694 10039 10041 1
6695 10042 10043 1
6696 10042 10044 1
6697 10045 10046 1
6698 10045 10047 1
6699 10048 10049 1
6700 10048 10050 1
6701 10051 10052 1
6702 10051 10053 1
6703 10054 10055 1
6704 10054 10056 1
6705 10057 10058 1
6706 10057 10059 1
6707 10060 10061 1
6708 10060 10062 1
6709 10063 10064 1
6710 10063 10065 1
6711 10066 10068 1
6712 10066 10067 1
6713 10069 10070 1
6714 10069 10071 1
6715 10072 10073 1
6716 10072 10074 1
6717 10075 10076 1
6718 10075 10077 1
6719 10078 10079 1
6720 10078 10080 1
6721 10081 10082 1
6722 10081 10083 1
6723 10084 10085 1
6724 10084 10086 1
6725 10087 10088 1
6726 10087 10089 1
6727 10090 10091 1
6728 10090 10092 1
6729 10093 10094 1
6730 10093 10095 1
6731 10096 10097 1
6732 10096 10098 1
6733 10099 10100 1
6734 10099 10101 1
6735 10102 10104 1
6736 10102 10103 1
6737 10105 10106 1
6738 10105 10107 1
6739 10108 10109 1
6740 10108 10110 1
6741 10111 10112 1
6742 10111 10113 1
6743 10114 10115 1
6744 10114 10116 1
6745 10117 10118 1
6746 10117 10119 1
6747 10120 10121 1
6748 10120 10122 1
6749 10123 10124 1
6750 10123 10125 1
6751 10126 10127 1
6752 10126 10128 1
6753 10129 10130 1
6754 10129 10131 1
6755 10132 10133 1
6756 10132 10134 1
6757 10135 10136 1
6758 10135 10137 1
6759 10138 10139 1
6760 10138 10140 1
6761 10141 10142 1
6762 10141 10143 1
6763 10144 10145 1
6764 10144 10146 1
6765 10147 10148 1
6766 10147 10149 1
6767 10150 10151 1
6768 10150 10152 1
6769 10153 10154 1
6770 10153 10155 1
6771 10156 10157 1
6772 10156 10158 1
6773 10159 10160 1
6774 10159 10161 1
6775 10162 10163 1
6776 10162 10164 1
6777 10165 10166 1
6778 10165 10167 1
6779 10168 10169 1
6780 10168 10170 1
6781 10171 10172 1
6782 10171 10173 1
6783 10174 10175 1
6784 10174 10176 1
6785 10177 10178 1
6786 10177 10179 1
6787 10180 10181 1
6788 10180 10182 1
6789 10183 10184 1
6790 10183 10185 1
6791 10186 10187 1
6792 10186 10188 1
6793 10189 10190 1
6794 10189 10191 1
6795 10192 10193 1
6796 10192 10194 1
6797 10195 10196 1
6798 10195 10197 1
6799 10198 10199 1
6800 10198 10200 1
6801 10201 10202 1
6802 10201 10203 1
6803 10204 10205 1
6804 10204 10206 1
6805 10207 10208 1
6806 10207 10209 1
6807 10210 10211 1
6808 10210 10212 1
6809 10213 10214 1
6810 10213 10215 1
6811 10216 10217 1
6812 10216 10218 1
6813 10219 10220 1
6814 10219 10221 1
6815 10222 10223 1
6816 10222 10224 1
6817 10225 10226 1
6818 10225 10227 1
6819 10228 10229 1
6820 10228 10230 1
6821 10231 10232 1
6822 10231 10233 1
6823 10234 10235 1
6824 10234 10236 1
6825 10237 10238 1
6826 10237 10239 1
6827 10240 10241 1
6828 10240 10242 1
6829 10243 10244 1
6830 10243 10245 1
6831 10246 10247 1
6832 10246 10248 1
6833 10249 10250 1
6834 10249 10251 1
6835 10252 10253 1
6836 10252 10254 1
6837 10255 10256 1
6838 10255 10257 1
6839 10258 10259 1
6840 10258 10260 1
6841 10261 10262 1
6842 10261 10263 1
6843 10264 10265 1
6844 10264 10266 1
6845 10267 10268 1
6846 10267 10269 1
6847 10270 10271 1
6848 10270 10272 1
6849 10273 10274 1
6850 10273 10275 1
6851 10276 10277 1
6852 10276 10278 1
6853 10279 10280 1
6854 10279 10281 1
6855 10282 10283 1
6856 10282 10284 1
6857 10285 10286 1
6858 10285 10287 1
6859 10288 10289 1
6860 10288 10290 1
6861 10291 10292 1
6862 10291 10293 1
6863 10294 10295 1
6864 10294 10296 1
6865 10297 10298 1
6866 10297 10299 1
6867 10300 10301 1
6868 10300 10302 1
6869 10303 10304 1
6870 10303 10305 1
6871 10306 10307 1
6872 10306 10308 1
6873 10309 10310 1
6874 10309 10311 1
6875 10312 10313 1
6876 10312 10314 1
6877 10315 10316 1
6878 10315 10317 1
6879 10318 10319 1
6880 10318 10320 1
6881 10321 10322 1
6882 10321 10323 1
6883 10324 10325 1
6884 10324 10326 1
6885 10327 10328 1
6886 10327 10329 1
6887 10330 10331 1
6888 10330 10332 1
6889 10333 10334 1
6890 10333 10335 1
6891 10336 10337 1
6892 10336 10338 1
6893 10339 10340 1
6894 10339 10341 1
6895 10342 10343 1
6896 10342 10344 1
6897 10345 10346 1
6898 10345 10347 1
6899 10348 10349 1
6900 10348 10350 1
6901 10351 10352 1
6902 10351 10353 1
6903 10354 10355 1
6904 10354 10356 1
6905 10357 10358 1
6906 10357 10359 1
6907 10360 10361 1
6908 10360 10362 1
6909 10363 10365 1
6910 10363 10364 1
6911 10366 10367 1
6912 10366 10368 1
6913 10369 10370 1
6914 10369 10371 1
6915 10372 10373 1
6916 10372 10374 1
6917 10375 10376 1
6918 10375 10377 1
6919 10378 10379 1
6920 10378 10380 1
6921 10381 10382 1
6922 10381 10383 1
6923 10384 10385 1
6924 10384 10386 1
6925 10387 10388 1
6926 10387 10389 1
6927 10390 10391 1
6928 10390 10392 1
6929 10393 10394 1
6930 10393 10395 1
6931 10396 10397 1
6932 10396 10398 1
6933 10399 10400 1
6934 10399 10401 1
6935 10402 10403 1
6936 10402 10404 1
6937 10405 10406 1
6938 10405 10407 1
6939 10408 10409 1
6940 10408 10410 1
6941 10411 10412 1
6942 10411 10413 1
6943 10414 10415 1
6944 10414 10416 1
6945 10417 10418 1
6946 10417 10419 1
6947 10420 10421 1
6948 10420 10422 1
6949 10423 10424 1
6950 10423 10425 1
6951 10426 10427 1
6952 10426 10428 1
6953 10429 10430 1
6954 10429 10431 1
6955 10432 10433 1
6956 10432 10434 1
6957 10435 10436 1
6958 10435 10437 1
6959 10438 10439 1
6960 10438 10440 1
6961 10441 10442 1
6962 10441 10443 1
6963 10444 10445 1
6964 10444 10446 1
6965 10447 10448 1
6966 10447 10449 1
6967 10450 10451 1
6968 10450 10452 1
6969 10453 10454 1
6970 10453 10455 1
6971 10456 10457 1
6972 10456 10458 1
6973 10459 10460 1
6974 10459 10461 1
6975 10462 10463 1
6976 10462 10464 1
6977 10465 10466 1
6978 10465 10467 1
6979 10468 10469 1
6980 10468 10470 1
6981 10471 10472 1
6982 10471 10473 1
6983 10474 10475 1
6984 10474 10476 1
6985 10477 10478 1
6986 10477 10479 1
6987 10480 10481 1
6988 10480 10482 1
6989 10483 10484 1
6990 10483 10485 1
6991 10486 10487 1
6992 10486 10488 1
6993 10489 10490 1
6994 10489 10491 1
6995 10492 10493 1
6996 10492 10494 1
6997 10495 10497 1
6998 10495 10496 1
6999 10498 10499 1
7000 10498 10500 1
7001 10501 10502 1
7002 10501 10503 1
7003 10504 10505 1
7004 10504 10506 1
7005 10507 10508 1
7006 10507 10509 1
7007 10510 10511 1
7008 10510 10512 1
7009 10513 10514 1
7010 10513 10515 1
7011 10516 10517 1
7012 10516 10518 1
7013 10519 10520 1
7014 10519 10521 1
7015 10522 10523 1
7016 10522 10524 1
7017 10525 10526 1
7018 10525 10527 1
7019 10528 10529 1
7020 10528 10530 1
7021 10531 10532 1
7022 10531 10533 1
7023 10534 10535 1
7024 10534 10536 1
7025 10537 10538 1
7026 10537 10539 1
7027 10540 10541 1
7028 10540 10542 1
7029 10543 10544 1
7030 10543 10545 1
7031 10546 10547 1
7032 10546 10548 1
7033 10549 10550 1
7034 10549 10551 1
7035 10552 10553 1
7036 10552 10554 1
7037 10555 10556 1
7038 10555 10557 1
7039 10558 10559 1
7040 10558 10560 1
7041 10561 10562 1
7042 10561 10563 1
7043 10564 10565 1
7044 10564 10566 1
7045 10567 10568 1
7046 10567 10569 1
7047 10570 10571 1
7048 10570 10572 1
7049 10573 10574 1
7050 10573 10575 1
7051 10576 10577 1
7052 10576 10578 1
7053 10579 10580 1
7054 10579 10581 1
7055 10582 10583 1
7056 10582 10584 1
7057 10585 10586 1
7058 10585 10587 1
7059 10588 10589 1
7060 10588 10590 1
7061 10591 10592 1
7062 10591 10593 1
7063 10594 10595 1
7064 10594 10596 1
7065 10597 10598 1
7066 10597 10599 1
7067 10600 10601 1
7068 10600 10602 1
7069 10603 10604 1
7070 10603 10605 1
7071 10606 10607 1
7072 10606 10608 1
7073 10609 10610 1
7074 10609 10611 1
7075 10612 10613 1
7076 10612 10614 1
7077 10615 10616 1
7078 10615 10617 1
7079 10618 10619 1
7080 10618 10620 1
7081 10621 10622 1
7082 10621 10623 1
7083 10624 10625 1
7084 10624 10626 1
7085 10627 10628 1
7086 10627 10629 1
7087 10630 10631 1
7088 10630 10632 1
7089 10633 10634 1
7090 10633 10635 1
7091 10636 10637 1
7092 10636 10638 1
7093 10639 10640 1
7094 10639 10641 1
7095 10642 10643 1
7096 10642 10644 1
7097 10645 10646 1
7098 10645 10647 1
7099 10648 10649 1
7100 10648 10650 1
7101 10651 10652 1
7102 10651 10653 1
7103 10654 10655 1
7104 10654 10656 1
7105 10657 10658 1
7106 10657 10659 1
7107 10660 10661 1
7108 10660 10662 1
7109 10663 10664 1
7110 10663 10665 1
7111 10666 10667 1
7112 10666 10668 1
7113 10669 10670 1
7114 10669 10671 1
7115 10672 10673 1
7116 10672 10674 1
7117 10675 10676 1
7118 10675 10677 1
7119 10678 10679 1
7120 10678 10680 1
7121 10681 10682 1
7122 10681 10683 1
7123 10684 10685 1
7124 10684 10686 1
7125 10687 10688 1
7126 10687 10689 1
7127 10690 10691 1
7128 10690 10692 1
7129 10693 10694 1
7130 10693 10695 1
7131 10696 10697 1
7132 10696 10698 1
7133 10699 10700 1
7134 10699 10701 1
7135 10702 10703 1
7136 10702 10704 1
7137 10705 10706 1
7138 10705 10707 1
7139 10708 10709 1
7140 10708 10710 1
7141 10711 10712 1
7142 10711 10713 1
7143 10714 10715 1
7144 10714 10716 1
7145 10717 10718 1
7146 10717 10719 1
7147 10720 10721 1
7148 10720 10722 1
7149 10723 10724 1
7150 10723 10725 1
7151 10726 10727 1
7152 10726 10728 1
7153 10729 10730 1
7154 10729 10731 1
7155 10732 10734 1
7156 10732 10733 1
7157 10735 10737 1
7158 10735 10736 1
7159 10738 10739 1
7160 10738 10740 1
7161 10741 10742 1
7162 10741 10743 1
7163 10744 10745 1
7164 10744 10746 1
7165 10747 10748 1
7166 10747 10749 1
7167 10750 10751 1
7168 10750 10752 1
7169 10753 10754 1
7170 10753 10755 1
7171 10756 10757 1
7172 10756 10758 1
7173 10759 10761 1
7174 10759 10760 1
7175 10762 10763 1
7176 10762 10764 1
7177 10765 10766 1
7178 10765 10767 1
7179 10768 10769 1
7180 10768 10770 1
7181 10771 10772 1
7182 10771 10773 1
7183 10774 10775 1
7184 10774 10776 1
7185 10777 10778 1
7186 10777 10779 1
7187 10780 10781 1
7188 10780 10782 1
7189 10783 10784 1
7190 10783 10785 1
7191 10786 10787 1
7192 10786 10788 1
7193 10789 10790 1
7194 10789 10791 1
7195 10792 10793 1
7196 10792 10794 1
7197 10795 10796 1
7198 10795 10797 1
7199 10798 10799 1
7200 10798 10800 1
7201 10801 10802 1
7202 10801 10803 1
7203 10804 10805 1
7204 10804 10806 1
7205 10807 10808 1
7206 10807 10809 1
7207 10810 10811 1
7208 10810 10812 1
7209 10813 10814 1
7210 10813 10815 1
7211 10816 10817 1
7212 10816 10818 1
7213 10819 10820 1
7214 10819 10821 1
7215 10822 10823 1
7216 10822 10824 1
7217 10825 10826 1
7218 10825 10827 1
7219 10828 10829 1
7220 10828 10830 1
7221 10831 10832 1
7222 10831 10833 1
7223 10834 10835 1
7224 10834 10836 1
7225 10837 10838 1
7226 10837 10839 1
7227 10840 10841 1
7228 10840 10842 1
7229 10843 10844 1
7230 10843 10845 1
7231 10846 10847 1
7232 10846 10848 1
7233 10849 10850 1
7234 10849 10851 1
7235 10852 10853 1
7236 10852 10854 1
7237 10855 10856 1
7238 10855 10857 1
7239 10858 10859 1
7240 10858 10860 1
7241 10861 10862 1
7242 10861 10863 1
7243 10864 10865 1
7244 10864 10866 1
7245 10867 10868 1
7246 10867 10869 1
7247 10870 10871 1
7248 10870 10872 1
7249 10873 10874 1
7250 10873 10875 1
7251 10876 10877 1
7252 10876 10878 1
7253 10879 10880 1
7254 10879 10881 1
7255 10882 10883 1
7256 10882 10884 1
7257 10885 10886 1
7258 10885 10887 1
7259 10888 10889 1
7260 10888 10890 1
7261 10891 10892 1
7262 10891 10893 1
7263 10894 10895 1
7264 10894 10896 1
7265 10897 10898 1
7266 10897 10899 1
7267 10900 10901 1
7268 10900 10902 1
7269 10903 10904 1
7270 10903 10905 1
7271 10906 10907 1
7272 10906 10908 1
7273 10909 10910 1
7274 10909 10911 1
7275 10912 10913 1
7276 10912 10914 1
7277 10915 10916 1
7278 10915 10917 1
7279 10918 10919 1
7280 10918 10920 1
7281 10921 10922 1
7282 10921 10923 1
7283 10924 10925 1
7284 10924 10926 1
7285 10927 10928 1
7286 10927 10929 1
7287 10930 10931 1
7288 10930 10932 1
7289 10933 10934 1
7290 10933 10935 1
7291 10936 10937 1
7292 10936 10938 1
7293 10939 10940 1
7294 10939 10941 1
7295 10942 10943 1
7296 10942 10944 1
7297 10945 10946 1
7298 10945 10947 1
7299 10948 10949 1
7300 10948 10950 1
7301 10951 10952 1
7302 10951 10953 1
7303 10954 10955 1
7304 10954 10956 1
7305 10957 10958 1
7306 10957 10959 1
7307 10960 10961 1
7308 10960 10962 1
7309 10963 10964 1
7310 10963 10965 1
7311 10966 10967 1
7312 10966 10968 1
7313 10969 10970 1
7314 10969 10971 1
7315 10972 10973 1
7316 10972 10974 1
7317 10975 10976 1
7318 10975 10977 1
7319 10978 10979 1
7320 10978 10980 1
7321 10981 10982 1
7322 10981 10983 1
7323 10984 10985 1
7324 10984 10986 1
7325 10987 10988 1
7326 10987 10989 1
7327 10990 10991 1
7328 10990 10992 1
7329 10993 10994 1
7330 10993 10995 1
7331 10996 10997 1
7332 10996 10998 1
7333 10999 11000 1
7334 10999 11001 1
7335 11002 11003 1
7336 11002 11004 1
7337 11005 11006 1
7338 11005 11007 1
7339 11008 11009 1
7340 11008 11010 1
7341 11011 11012 1
7342 11011 11013 1
7343 11014 11015 1
7344 11014 11016 1
7345 11017 11018 1
7346 11017 11019 1
7347 11020 11021 1
7348 11020 11022 1
7349 11023 11024 1
7350 11023 11025 1
7351 11026 11027 1
7352 11026 11028 1
7353 11029 11030 1
7354 11029 11031 1
7355 11032 11033 1
7356 11032 11034 1
7357 11035 11036 1
7358 11035 11037 1
7359 11038 11039 1
7360 11038 11040 1
7361 11041 11042 1
7362 11041 11043 1
7363 11044 11045 1
7364 11044 11046 1
7365 11047 11048 1
7366 11047 11049 1
7367 11050 11051 1
7368 11050 11052 1
7369 11053 11054 1
7370 11053 11055 1
7371 11056 11057 1
7372 11056 11058 1
7373 11059 11060 1
7374 11059 11061 1
7375 11062 11063 1
7376 11062 11064 1
7377 11065 11066 1
7378 11065 11067 1
7379 11068 11069 1
7380 11068 11070 1
7381 11071 11072 1
7382 11071 11073 1
7383 11074 11075 1
7384 11074 11076 1
7385 11077 11078 1
7386 11077 11079 1
7387 11080 11081 1
7388 11080 11082 1
7389 11083 11084 1
7390 11083 11085 1
7391 11086 11087 1
7392 11086 11088 1
7393 11089 11090 1
7394 11089 11091 1
7395 11092 11093 1
7396 11092 11094 1
7397 11095 11096 1
7398 11095 11097 1
7399 11098 11099 1
7400 11098 11100 1
7401 11101 11102 1
7402 11101 11103 1
7403 11104 11105 1
7404 11104 11106 1
7405 11107 11108 1
7406 11107 11109 1
7407 11110 11111 1
7408 11110 11112 1
7409 11113 11114 1
7410 11113 11115 1
7411 11116 11117 1
7412 11116 11118 1
7413 11119 11120 1
7414 11119 11121 1
7415 11122 11123 1
7416 11122 11124 1
7417 11125 11126 1
7418 11125 11127 1
7419 11128 11129 1
7420 11128 11130 1
7421 11131 11132 1
7422 11131 11133 1
7423 11134 11135 1
7424 11134 11136 1
7425 11137 11138 1
7426 11137 11139 1
7427 11140 11141 1
7428 11140 11142 1
7429 11143 11144 1
7430 11143 11145 1
7431 11146 11147 1
7432 11146 11148 1
7433 11149 11150 1
7434 11149 11151 1
7435 11152 11153 1
7436 11152 11154 1
7437 11155 11156 1
7438 11155 11157 1
7439 11158 11159 1
7440 11158 11160 1
7441 11161 11162 1
7442 11161 11163 1
7443 11164 11165 1
7444 11164 11166 1
7445 11167 11168 1
7446 11167 11169 1
7447 11170 11171 1
7448 11170 11172 1
7449 11173 11174 1
7450 11173 11175 1
7451 11176 11177 1
7452 11176 11178 1
7453 11179 11180 1
7454 11179 11181 1
7455 11182 11183 1
7456 11182 11184 1
7457 11185 11186 1
7458 11185 11187 1
7459 11188 11189 1
7460 11188 11190 1
7461 11191 11192 1
7462 11191 11193 1
7463 11194 11195 1
7464 11194 11196 1
7465 11197 11198 1
7466 11197 11199 1
7467 11200 11201 1
7468 11200 11202 1
7469 11203 11204 1
7470 11203 11205 1
7471 11206 11207 1
7472 11206 11208 1
7473 11209 11210 1
7474 11209 11211 1
7475 11212 11213 1
7476 11212 11214 1
7477 11215 11216 1
7478 11215 11217 1
7479 11218 11219 1
7480 11218 11220 1
7481 11221 11222 1
7482 11221 11223 1
7483 11224 11225 1
7484 11224 11226 1
7485 11227 11228 1
7486 11227 11229 1
7487 11230 11231 1
7488 11230 11232 1
7489 11233 11234 1
7490 11233 11235 1
7491 11236 11237 1
7492 11236 11238 1
7493 11239 11240 1
7494 11239 11241 1
7495 11242 11243 1
7496 11242 11244 1
7497 11245 11246 1
7498 11245 11247 1
7499 11248 11249 1
7500 11248 11250 1
7501 11251 11252 1
7502 11251 11253 1
7503 11254 11255 1
7504 11254 11256 1
7505 11257 11258 1
7506 11257 11259 1
7507 11260 11261 1
7508 11260 11262 1
7509 11263 11264 1
7510 11263 11265 1
7511 11266 11267 1
7512 11266 11268 1
7513 11269 11270 1
7514 11269 11271 1
7515 11272 11273 1
7516 11272 11274 1
7517 11275 11276 1
7518 11275 11277 1
7519 11278 11279 1
7520 11278 11280 1
7521 11281 11282 1
7522 11281 11283 1
7523 11284 11285 1
7524 11284 11286 1
7525 11287 11288 1
7526 11287 11289 1
7527 11290 11291 1
7528 11290 11292 1
7529 11293 11294 1
7530 11293 11295 1
7531 11296 11297 1
7532 11296 11298 1
7533 11299 11300 1
7534 11299 11301 1
7535 11302 11303 1
7536 11302 11304 1
7537 11305 11306 1
7538 11305 11307 1
7539 11308 11309 1
7540 11308 11310 1
7541 11311 11312 1
7542 11311 11313 1
7543 11314 11315 1
7544 11314 11316 1
7545 11317 11318 1
7546 11317 11319 1
7547 11320 11321 1
7548 11320 11322 1
7549 11323 11324 1
7550 11323 11325 1
7551 11326 11327 1
7552 11326 11328 1
7553 11329 11330 1
7554 11329 11331 1
7555 11332 11333 1
7556 11332 11334 1
7557 11335 11336 1
7558 11335 11337 1
7559 11338 11339 1
7560 11338 11340 1
7561 11341 11342 1
7562 11341 11343 1
7563 11344 11345 1
7564 11344 11346 1
7565 11347 11348 1
7566 11347 11349 1
7567 11350 11351 1
7568 11350 11352 1
7569 11353 11354 1
7570 11353 11355 1
7571 11356 11357 1
7572 11356 11358 1
7573 11359 11360 1
7574 11359 11361 1
7575 11362 11363 1
7576 11362 11364 1
7577 11365 11366 1
7578 11365 11367 1
7579 11368 11369 1
7580 11368 11370 1
7581 11371 11372 1
7582 11371 11373 1
7583 11374 11375 1
7584 11374 11376 1
7585 11377 11378 1
7586 11377 11379 1
7587 11380 11381 1
7588 11380 11382 1
7589 11383 11384 1
7590 11383 11385 1
7591 11386 11387 1
7592 11386 11388 1
7593 11389 11390 1
7594 11389 11391 1
7595 11392 11393 1
7596 11392 11394 1
7597 11395 11396 1
7598 11395 11397 1
7599 11398 11399 1
7600 11398 11400 1
7601 11401 11402 1
7602 11401 11403 1
7603 11404 11405 1
7604 11404 11406 1
7605 11407 11408 1
7606 11407 11409 1
7607 11410 11411 1
7608 11410 11412 1
7609 11413 11414 1
7610 11413 11415 1
7611 11416 11417 1
7612 11416 11418 1
7613 11419 11420 1
7614 11419 11421 1
7615 11422 11423 1
7616 11422 11424 1
7617 11425 11426 1
7618 11425 11427 1
7619 11428 11429 1
7620 11428 11430 1
7621 11431 11432 1
7622 11431 11433 1
7623 11434 11435 1
7624 11434 11436 1
7625 11437 11438 1
7626 11437 11439 1
7627 11440 11441 1
7628 11440 11442 1
7629 11443 11444 1
7630 11443 11445 1
7631 11446 11447 1
7632 11446 11448 1
7633 11449 11450 1
7634 11449 11451 1
7635 11452 11453 1
7636 11452 11454 1
7637 11455 11456 1
7638 11455 11457 1
7639 11458 11459 1
7640 11458 11460 1
7641 11461 11462 1
7642 11461 11463 1
7643 11464 11465 1
7644 11464 11466 1
7645 11467 11468 1
7646 11467 11469 1
7647 11470 11471 1
7648 11470 11472 1
7649 11473 11474 1
7650 11473 11475 1
7651 11476 11477 1
7652 11476 11478 1
7653 11479 11480 1
7654 11479 11481 1
7655 11482 11483 1
7656 11482 11484 1
7657 11485 11486 1
7658 11485 11487 1
7659 11488 11489 1
7660 11488 11490 1
7661 11491 11492 1
7662 11491 11493 1
7663 11494 11495 1
7664 11494 11496 1
7665 11497 11498 1
7666 11497 11499 1
7667 11500 11501 1
7668 11500 11502 1
7669 11503 11504 1
7670 11503 11505 1
7671 11506 11507 1
7672 11506 11508 1
7673 11509 11510 1
7674 11509 11511 1
7675 11512 11513 1
7676 11512 11514 1
7677 11515 11516 1
7678 11515 11517 1
7679 11518 11519 1
7680 11518 11520 1
7681 11521 11522 1
7682 11521 11523 1
7683 11524 11525 1
7684 11524 11526 1
7685 11527 11528 1
7686 11527 11529 1
7687 11530 11531 1
7688 11530 11532 1
7689 11533 11534 1
7690 11533 11535 1
7691 11536 11537 1
7692 11536 11538 1
7693 11539 11540 1
7694 11539 11541 1
7695 11542 11543 1
7696 11542 11544 1
7697 11545 11546 1
7698 11545 11547 1
7699 11548 11549 1
7700 11548 11550 1
7701 11551 11552 1
7702 11551 11553 1
7703 11554 11555 1
7704 11554 11556 1
7705 11557 11558 1
7706 11557 11559 1
7707 11560 11561 1
7708 11560 11562 1
7709 11563 11564 1
7710 11563 11565 1
7711 11566 11567 1
7712 11566 11568 1
7713 11569 11570 1
7714 11569 11571 1
7715 11572 11573 1
7716 11572 11574 1
7717 11575 11576 1
7718 11575 11577 1
7719 11578 11579 1
7720 11578 11580 1
7721 11581 11582 1
7722 11581 11583 1
7723 11584 11585 1
7724 11584 11586 1
7725 11587 11588 1
7726 11587 11589 1
7727 11590 11591 1
7728 11590 11592 1
7729 11593 11594 1
7730 11593 11595 1
7731 11596 11597 1
7732 11596 11598 1
7733 11599 11600 1
7734 11599 11601 1
7735 11602 11603 1
7736 11602 11604 1
7737 11605 11606 1
7738 11605 11607 1
7739 11608 11609 1
7740 11608 11610 1
7741 11611 11612 1
7742 11611 11613 1
7743 11614 11616 1
7744 11614 11615 1
7745 11617 11618 1
7746 11617 11619 1
7747 11620 11621 1
7748 11620 11622 1
7749 11623 11624 1
7750 11623 11625 1
7751 11626 11627 1
7752 11626 11628 1
7753 11629 11630 1
7754 11629 11631 1
7755 11632 11633 1
7756 11632 11634 1
7757 11635 11636 1
7758 11635 11637 1
7759 11638 11639 1
7760 11638 11640 1
7761 11641 11642 1
7762 11641 11643 1
7763 11644 11645 1
7764 11644 11646 1
7765 11647 11648 1
7766 11647 11649 1
7767 11650 11651 1
7768 11650 11652 1
7769 11653 11654 1
7770 11653 11655 1
7771 11656 11657 1
7772 11656 11658 1
7773 11659 11660 1
7774 11659 11661 1
7775 11662 11663 1
7776 11662 11664 1
7777 11665 11666 1
7778 11665 11667 1
7779 11668 11669 1
7780 11668 11670 1
7781 11671 11672 1
7782 11671 11673 1
7783 11674 11675 1
7784 11674 11676 1
7785 11677 11678 1
7786 11677 11679 1
7787 11680 11681 1
7788 11680 11682 1
7789 11683 11684 1
7790 11683 11685 1
7791 11686 11687 1
7792 11686 11688 1
7793 11689 11690 1
7794 11689 11691 1
7795 11692 11693 1
7796 11692 11694 1
7797 11695 11696 1
7798 11695 11697 1
7799 11698 11699 1
7800 11698 11700 1
7801 11701 11702 1
7802 11701 11703 1
7803 11704 11705 1
7804 11704 11706 1
7805 11707 11708 1
7806 11707 11709 1
7807 11710 11711 1
7808 11710 11712 1
7809 11713 11714 1
7810 11713 11715 1
7811 11716 11717 1
7812 11716 11718 1
7813 11719 11720 1
7814 11719 11721 1
7815 11722 11723 1
7816 11722 11724 1
7817 11725 11726 1
7818 11725 11727 1
7819 11728 11729 1
7820 11728 11730 1
7821 11731 11732 1
7822 11731 11733 1
7823 11734 11735 1
7824 11734 11736 1
7825 11737 11738 1
7826 11737 11739 1
7827 11740 11741 1
7828 11740 11742 1
7829 11743 11744 1
7830 11743 11745 1
7831 11746 11747 1
7832 11746 11748 1
7833 11749 11750 1
7834 11749 11751 1
7835 11752 11753 1
7836 11752 11754 1
7837 11755 11756 1
7838 11755 11757 1
7839 11758 11759 1
7840 11758 11760 1
7841 11761 11762 1
7842 11761 11763 1
7843 11764 11765 1
7844 11764 11766 1
7845 11767 11768 1
7846 11767 11769 1
7847 11770 11771 1
7848 11770 11772 1
7849 11773 11774 1
7850 11773 11775 1
7851 11776 11777 1
7852 11776 11778 1
7853 11779 11780 1
7854 11779 11781 1
7855 11782 11783 1
7856 11782 11784 1
7857 11785 11786 1
7858 11785 11787 1
7859 11788 11789 1
7860 11788 11790 1
7861 11791 11792 1
7862 11791 11793 1
7863 11794 11795 1
7864 11794 11796 1
7865 11797 11798 1
7866 11797 11799 1
7867 11800 11801 1
7868 11800 11802 1
7869 11803 11804 1
7870 11803 11805 1
7871 11806 11807 1
7872 11806 11808 1
7873 11809 11810 1
7874 11809 11811 1
7875 11812 11813 1
7876 11812 11814 1
7877 11815 11816 1
7878 11815 11817 1
7879 11818 11819 1
7880 11818 11820 1
7881 11821 11822 1
7882 11821 11823 1
7883 11824 11825 1
7884 11824 11826 1
7885 11827 11828 1
7886 11827 11829 1
7887 11830 11831 1
7888 11830 11832 1
7889 11833 11834 1
7890 11833 11835 1
7891 11836 11837 1
7892 11836 11838 1
7893 11839 11840 1
7894 11839 11841 1
7895 11842 11843 1
7896 11842 11844 1
7897 11845 11846 1
7898 11845 11847 1
7899 11848 11849 1
7900 11848 11850 1
7901 11851 11852 1
7902 11851 11853 1
7903 11854 11855 1
7904 11854 11856 1
7905 11857 11858 1
7906 11857 11859 1
7907 11860 11861 1
7908 11860 11862 1
7909 11863 11864 1
7910 11863 11865 1
7911 11866 11867 1
7912 11866 11868 1
7913 11869 11870 1
7914 11869 11871 1
7915 11872 11873 1
7916 11872 11874 1
7917 11875 11876 1
7918 11875 11877 1
7919 11878 11879 1
7920 11878 11880 1
7921 11881 11882 1
7922 11881 11883 1
7923 11884 11885 1
7924 11884 11886 1
7925 11887 11888 1
7926 11887 11889 1
7927 11890 11891 1
7928 11890 11892 1
7929 11893 11894 1
7930 11893 11895 1
7931 11896 11897 1
7932 11896 11898 1
7933 11899 11900 1
7934 11899 11901 1
7935 11902 11903 1
7936 11902 11904 1
7937 11905 11906 1
7938 11905 11907 1
7939 11908 11909 1
7940 11908 11910 1
7941 11911 11912 1
7942 11911 11913 1
7943 11914 11915 1
7944 11914 11916 1
7945 11917 11918 1
7946 11917 11919 1
7947 11920 11921 1
7948 11920 11922 1
7949 11923 11924 1
7950 11923 11925 1
7951 11926 11927 1
7952 11926 11928 1
7953 11929 11930 1
7954 11929 11931 1
7955 11932 11933 1
7956 11932 11934 1
7957 11935 11936 1
7958 11935 11937 1
7959 11938 11939 1
7960 11938 11940 1
7961 11941 11942 1
7962 11941 11943 1
7963 11944 11945 1
7964 11944 11946 1
7965 11947 11948 1
7966 11947 11949 1
7967 11950 11951 1
7968 11950 11952 1
7969 11953 11954 1
7970 11953 11955 1
7971 11956 11957 1
7972 11956 11958 1
7973 11959 11960 1
7974 11959 11961 1
7975 11962 11963 1
7976 11962 11964 1
7977 11965 11966 1
7978 11965 11967 1
7979 11968 11969 1
7980 11968 11970 1
7981 11971 11972 1
7982 11971 11973 1
7983 11974 11975 1
7984 11974 11976 1
7985 11977 11978 1
7986 11977 11979 1
7987 11980 11981 1
7988 11980 11982 1
7989 11983 11984 1
7990 11983 11985 1
7991 11986 11987 1
7992 11986 11988 1
7993 11989 11990 1
7994 11989 11991 1
7995 11992 11993 1
7996 11992 11994 1
7997 11995 11996 1
7998 11995 11997 1
7999 11998 11999 1
8000 11998 12000 1
8001 12001 12002 1
8002 12001 12003 1
8003 12004 12005 1
8004 12004 12006 1
8005 12007 12008 1
8006 12007 12009 1
8007 12010 12011 1
8008 12010 12012 1
8009 12013 12014 1
8010 12013 12015 1
8011 12016 12017 1
8012 12016 12018 1
8013 12019 12020 1
8014 12019 12021 1
8015 12022 12023 1
8016 12022 12024 1
8017 12025 12026 1
8018 12025 12027 1
8019 12028 12029 1
8020 12028 12030 1
8021 12031 12033 1
8022 12031 12032 1
8023 12034 12035 1
8024 12034 12036 1
8025 12037 12038 1
8026 12037 12039 1
8027 12040 12041 1
8028 12040 12042 1
8029 12043 12044 1
8030 12043 12045 1
8031 12046 12047 1
8032 12046 12048 1
8033 12049 12050 1
8034 12049 12051 1
8035 12052 12053 1
8036 12052 12054 1
8037 12055 12056 1
8038 12055 12057 1
8039 12058 12059 1
8040 12058 12060 1
8041 12061 12062 1
8042 12061 12063 1
8043 12064 12065 1
8044 12064 12066 1
8045 12067 12068 1
8046 12067 12069 1
8047 12070 12071 1
8048 12070 12072 1
8049 12073 12074 1
8050 12073 12075 1
8051 12076 12077 1
8052 12076 12078 1
8053 12079 12080 1
8054 12079 12081 1
8055 12082 12083 1
8056 12082 12084 1
8057 12085 12086 1
8058 12085 12087 1
8059 12088 12089 1
8060 12088 12090 1
8061 12091 12092 1
8062 12091 12093 1
8063 12094 12095 1
8064 12094 12096 1
8065 12097 12098 1
8066 12097 12099 1
8067 12100 12101 1
8068 12100 12102 1
8069 12103 12104 1
8070 12103 12105 1
8071 12106 12107 1
8072 12106 12108 1
8073 12109 12110 1
8074 12109 12111 1
8075 12112 12113 1
8076 12112 12114 1
8077 12115 12116 1
8078 12115 12117 1
8079 12118 12119 1
8080 12118 12120 1
8081 12121 12122 1
8082 12121 12123 1
8083 12124 12125 1
8084 12124 12126 1
8085 12127 12128 1
8086 12127 12129 1
8087 12130 12131 1
8088 12130 12132 1
8089 12133 12134 1
8090 12133 12135 1
8091 12136 12137 1
8092 12136 12138 1
8093 12139 12140 1
8094 12139 12141 1
8095 12142 12143 1
8096 12142 12144 1
8097 12145 12146 1
8098 12145 12147 1
8099 12148 12149 1
8100 12148 12150 1
8101 12151 12152 1
8102 12151 12153 1
8103 12154 12155 1
8104 12154 12156 1
8105 12157 12158 1
8106 12157 12159 1
8107 12160 12161 1
8108 12160 12162 1
8109 12163 12164 1
8110 12163 12165 1
8111 12166 12167 1
8112 12166 12168 1
8113 12169 12170 1
8114 12169 12171 1
8115 12172 12173 1
8116 12172 12174 1
8117 12175 12176 1
8118 12175 12177 1
8119 12178 12179 1
8120 12178 12180 1
8121 12181 12182 1
8122 12181 12183 1
8123 12184 12185 1
8124 12184 12186 1
8125 12187 12188 1
8126 12187 12189 1
8127 12190 12191 1
8128 12190 12192 1
8129 12193 12194 1
8130 12193 12195 1
8131 12196 12197 1
8132 12196 12198 1
8133 12199 12200 1
8134 12199 12201 1
8135 12202 12203 1
8136 12202 12204 1
8137 12205 12206 1
8138 12205 12207 1
8139 12208 12209 1
8140 12208 12210 1
8141 12211 12212 1
8142 12211 12213 1
8143 12214 12215 1
8144 12214 12216 1
8145 12217 12218 1
8146 12217 12219 1
8147 12220 12221 1
8148 12220 12222 1
8149 12223 12224 1
8150 12223 12225 1
8151 12226 12227 1
8152 12226 12228 1
8153 12229 12230 1
8154 12229 12231 1
8155 12232 12233 1
8156 12232 12234 1
8157 12235 12236 1
8158 12235 12237 1
8159 12238 12239 1
8160 12238 12240 1
8161 12241 12242 1
8162 12241 12243 1
8163 12244 12245 1
8164 12244 12246 1
8165 12247 12248 1
8166 12247 12249 1
8167 12250 12251 1
8168 12250 12252 1
8169 12253 12254 1
8170 12253 12255 1
8171 12256 12257 1
8172 12256 12258 1
8173 12259 12260 1
8174 12259 12261 1
8175 12262 12263 1
8176 12262 12264 1
8177 12265 12266 1
8178 12265 12267 1
8179 12268 12269 1
8180 12268 12270 1
8181 12271 12272 1
8182 12271 12273 1
8183 12274 12275 1
8184 12274 12276 1
8185 12277 12278 1
8186 12277 12279 1
8187 12280 12281 1
8188 12280 12282 1
8189 12283 12284 1
8190 12283 12285 1
8191 12286 12287 1
8192 12286 12288 1
8193 12289 12290 1
8194 12289 12291 1
8195 12292 12293 1
8196 12292 12294 1
8197 12295 12296 1
8198 12295 12297 1
8199 12298 12299 1
8200 12298 12300 1
8201 12301 12302 1
8202 12301 12303 1
8203 12304 12305 1
8204 12304 12306 1
8205 12307 12308 1
8206 12307 12309 1
8207 12310 12311 1
8208 12310 12312 1
8209 12313 12314 1
8210 12313 12315 1
8211 12316 12317 1
8212 12316 12318 1
8213 12319 12320 1
8214 12319 12321 1
8215 12322 12323 1
8216 12322 12324 1
8217 12325 12326 1
8218 12325 12327 1
8219 12328 12329 1
8220 12328 12330 1
8221 12331 12332 1
8222 12331 12333 1
8223 12334 12335 1
8224 12334 12336 1
8225 12337 12338 1
8226 12337 12339 1
8227 12340 12341 1
8228 12340 12342 1
8229 12343 12344 1
8230 12343 12345 1
8231 12346 12347 1
8232 12346 12348 1
8233 12349 12350 1
8234 12349 12351 1
8235 12352 12353 1
8236 12352 12354 1
8237 12355 12356 1
8238 12355 12357 1
8239 12358 12359 1
8240 12358 12360 1
8241 12361 12362 1
8242 12361 12363 1
8243 12364 12365 1
8244 12364 12366 1
8245 12367 12368 1
8246 12367 12369 1
8247 12370 12371 1
8248 12370 12372 1
8249 12373 12374 1
8250 12373 12375 1
8251 12376 12377 1
8252 12376 12378 1
8253 12379 12380 1
8254 12379 12381 1
8255 12382 12383 1
8256 12382 12384 1
8257 12385 12386 1
8258 12385 12387 1
8259 12388 12389 1
8260 12388 12390 1
8261 12391 12392 1
8262 12391 12393 1
8263 12394 12395 1
8264 12394 12396 1
8265 12397 12398 1
8266 12397 12399 1
8267 12400 12401 1
8268 12400 12402 1
8269 12403 12404 1
8270 12403 12405 1
8271 12406 12407 1
8272 12406 12408 1
8273 12409 12410 1
8274 12409 12411 1
8275 12412 12413 1
8276 12412 12414 1
8277 12415 12416 1
8278 12415 12417 1
8279 12418 12419 1
8280 12418 12420 1
8281 12421 12422 1
8282 12421 12423 1
8283 12424 12426 1
8284 12424 12425 1
8285 12427 12428 1
8286 12427 12429 1
8287 12430 12431 1
8288 12430 12432 1
8289 12433 12434 1
8290 12433 12435 1
8291 12436 12437 1
8292 12436 12438 1
8293 12439 12440 1
8294 12439 12441 1
8295 12442 12443 1
8296 12442 12444 1
8297 12445 12446 1
8298 12445 12447 1
8299 12448 12449 1
8300 12448 12450 1
8301 12451 12452 1
8302 12451 12453 1
8303 12454 12455 1
8304 12454 12456 1
8305 12457 12458 1
8306 12457 12459 1
8307 12460 12461 1
8308 12460 12462 1
8309 12463 12464 1
8310 12463 12465 1
8311 12466 12467 1
8312 12466 12468 1
8313 12469 12470 1
8314 12469 12471 1
8315 12472 12473 1
8316 12472 12474 1
8317 12475 12476 1
8318 12475 12477 1
8319 12478 12479 1
8320 12478 12480 1
8321 12481 12482 1
8322 12481 12483 1
8323 12484 12485 1
8324 12484 12486 1
8325 12487 12488 1
8326 12487 12489 1
8327 12490 12491 1
8328 12490 12492 1
8329 12493 12494 1
8330 12493 12495 1
8331 12496 12497 1
8332 12496 12498 1
8333 12499 12500 1
8334 12499 12501 1
8335 12502 12503 1
8336 12502 12504 1
8337 12505 12506 1
8338 12505 12507 1
8339 12508 12509 1
8340 12508 12510 1
8341 12511 12512 1
8342 12511 12513 1
8343 12514 12515 1
8344 12514 12516 1
8345 12517 12518 1
8346 12517 12519 1
8347 12520 12521 1
8348 12520 12522 1
8349 12523 12524 1
8350 12523 12525 1
8351 12526 12527 1
8352 12526 12528 1
8353 12529 12530 1
8354 12529 12531 1
8355 12532 12533 1
8356 12532 12534 1
