#	Created by:	Discovery Studio
#	Creation time:	2022-12-03T13:56:45Z

@<TRIPOS>MOLECULE
Molecule 1
  102   115     0 0 0
SMALL
USER_CHARGES


@<TRIPOS>ATOM
      1 C1           -3.881544    3.656284   -0.406209 C.ar     1 SUBUNIT    0.0000
      2 C2           -2.717636    2.899667   -0.475051 C.ar     1 SUBUNIT    0.0000
      3 C3           -2.824183    1.519657   -0.411131 C.ar     1 SUBUNIT    0.0000
      4 C4           -4.035522    0.878256   -0.280949 C.ar     1 SUBUNIT    0.0000
      5 C5           -5.204654    1.635730   -0.216739 C.ar     1 SUBUNIT    0.0000
      6 C6           -5.116972    3.024256   -0.278730 C.ar     1 SUBUNIT    0.0000
      7 C7           -3.766968   -0.619672   -0.242262 C.ar     1 SUBUNIT    0.0000
      8 C8           -2.411060   -0.815295   -0.361666 C.ar     1 SUBUNIT    0.0000
      9 C9           -1.705385    0.561155   -0.473031 C.3      1 SUBUNIT    0.0000
     10 C10          -1.838203   -2.095894   -0.368223 C.ar     1 SUBUNIT    0.0000
     11 C11          -2.654453   -3.244470   -0.255851 C.ar     1 SUBUNIT    0.0000
     12 C12          -4.042459   -3.008815   -0.128261 C.ar     1 SUBUNIT    0.0000
     13 C13          -4.604734   -1.717681   -0.115675 C.ar     1 SUBUNIT    0.0000
     14 C14          -6.094822   -1.514776    0.033468 C.3      1 SUBUNIT    0.0000
     15 C15          -6.710099   -2.573312    0.852364 C.3      1 SUBUNIT    0.0000
     16 C16          -6.465704   -3.855429    0.171253 C.3      1 SUBUNIT    0.0000
     17 C17          -4.946037   -4.115365   -0.004348 C.2      1 SUBUNIT    0.0000
     18 C18          -4.447276   -5.406752   -0.070248 C.ar     1 SUBUNIT    0.0000
     19 C19          -3.075242   -5.645130   -0.205248 C.ar     1 SUBUNIT    0.0000
     20 C20          -2.114767   -4.576904   -0.269944 C.ar     1 SUBUNIT    0.0000
     21 C21          -0.667133   -4.676431   -0.351720 C.ar     1 SUBUNIT    0.0000
     22 C22           0.067238   -3.495216   -0.474837 C.ar     1 SUBUNIT    0.0000
     23 C23          -0.462803   -2.225269   -0.492284 C.ar     1 SUBUNIT    0.0000
     24 C24          -2.709076   -7.101661   -0.303159 C.3      1 SUBUNIT    0.0000
     25 C25          -3.754398   -8.209930   -0.433971 C.ar     1 SUBUNIT    0.0000
     26 C26          -5.090996   -7.904780   -0.251774 C.ar     1 SUBUNIT    0.0000
     27 C27          -5.477809   -6.541886    0.023642 C.3      1 SUBUNIT    0.0000
     28 C28          -6.075473   -8.894377   -0.337110 C.ar     1 SUBUNIT    0.0000
     29 C29          -5.705708  -10.198731   -0.610836 C.ar     1 SUBUNIT    0.0000
     30 C30          -4.370223  -10.517758   -0.808365 C.ar     1 SUBUNIT    0.0000
     31 C31          -3.384867   -9.534584   -0.726129 C.ar     1 SUBUNIT    0.0000
     32 C32          -4.006121  -11.898408   -1.104344 C.2      1 SUBUNIT    0.0000
     33 C33          -5.048035  -12.964726   -1.187947 C.3      1 SUBUNIT    0.0000
     34 C34          -6.213810  -12.615923   -0.268366 C.3      1 SUBUNIT    0.0000
     35 C35          -6.775180  -11.258627   -0.694963 C.3      1 SUBUNIT    0.0000
     36 C36          -2.054411   -9.912337   -0.945984 C.ar     1 SUBUNIT    0.0000
     37 C37          -1.713378  -11.231542   -1.241234 C.ar     1 SUBUNIT    0.0000
     38 C38          -2.679294  -12.222195   -1.316847 C.ar     1 SUBUNIT    0.0000
     39 C39           1.505119   -3.695572   -0.583560 C.3      1 SUBUNIT    0.0000
     40 C40           1.618831   -5.071196   -0.457004 C.ar     1 SUBUNIT    0.0000
     41 C41           0.372552   -5.675753   -0.322409 C.ar     1 SUBUNIT    0.0000
     42 C42           0.429664   -7.066307   -0.163942 C.ar     1 SUBUNIT    0.0000
     43 C43           1.635740   -7.758809   -0.153511 C.ar     1 SUBUNIT    0.0000
     44 C44           2.850112   -7.110148   -0.301920 C.ar     1 SUBUNIT    0.0000
     45 C45           2.844250   -5.736073   -0.456478 C.ar     1 SUBUNIT    0.0000
     46 C46           4.054205   -5.058090   -0.599890 C.ar     1 SUBUNIT    0.0000
     47 C47           5.255616   -5.752397   -0.589795 C.ar     1 SUBUNIT    0.0000
     48 C48           5.248923   -7.137709   -0.433168 C.ar     1 SUBUNIT    0.0000
     49 C49           4.046520   -7.825168   -0.286922 C.ar     1 SUBUNIT    0.0000
     50 C50           4.015494   -9.214763   -0.121624 C.ar     1 SUBUNIT    0.0000
     51 C51           2.793188   -9.857408    0.030567 C.ar     1 SUBUNIT    0.0000
     52 C52           1.610587   -9.132949    0.017407 C.ar     1 SUBUNIT    0.0000
     53 O53          -3.811668    5.041800   -0.466538 O.3      1 SUBUNIT    0.0000
     54 C54          -6.366003    3.843383   -0.207581 C.3      1 SUBUNIT    0.0000
     55 O55           0.397103   -1.072230   -0.620908 O.3      1 SUBUNIT    0.0000
     56 C56           6.537608   -4.933041   -0.749181 C.3      1 SUBUNIT    0.0000
     57 C57           7.831865   -5.762799   -0.902626 C.3      1 SUBUNIT    0.0000
     58 O58          -0.391085  -11.574354   -1.470635 O.3      1 SUBUNIT    0.0000
     59 O59          -7.474394   -8.651272   -0.156681 O.3      1 SUBUNIT    0.0000
     60 O60           5.178529  -10.025263   -0.095194 O.3      1 SUBUNIT    0.0000
     61 H1           -1.771220    3.366428   -0.574514 H        1 SUBUNIT    0.0000
     62 H2           -6.144135    1.187948   -0.123655 H        1 SUBUNIT    0.0000
     63 H3           -0.983012    0.721349    0.339141 H        1 SUBUNIT    0.0000
     64 H4           -1.131753    0.658552   -1.404768 H        1 SUBUNIT    0.0000
     65 H5           -6.293687   -0.559034    0.483739 H        1 SUBUNIT    0.0000
     66 H6           -6.553430   -1.535461   -0.964372 H        1 SUBUNIT    0.0000
     67 H7           -6.255132   -2.584387    1.852658 H        1 SUBUNIT    0.0000
     68 H8           -7.791333   -2.399359    0.938346 H        1 SUBUNIT    0.0000
     69 H9           -6.959838   -4.648196    0.734882 H        1 SUBUNIT    0.0000
     70 H10          -6.922532   -3.807072   -0.827214 H        1 SUBUNIT    0.0000
     71 H11          -1.977607   -7.219618   -1.104183 H        1 SUBUNIT    0.0000
     72 H12          -6.347681   -6.321200   -0.606047 H        1 SUBUNIT    0.0000
     73 H13          -5.425882  -12.999943   -2.218664 H        1 SUBUNIT    0.0000
     74 H14          -4.605627  -13.941156   -0.946716 H        1 SUBUNIT    0.0000
     75 H15          -6.994031  -13.385480   -0.347254 H        1 SUBUNIT    0.0000
     76 H16          -5.858805  -12.555426    0.770688 H        1 SUBUNIT    0.0000
     77 H17          -7.101745  -11.338919   -1.740594 H        1 SUBUNIT    0.0000
     78 H18          -7.639664  -10.966575   -0.084507 H        1 SUBUNIT    0.0000
     79 H19          -1.281438   -9.203347   -0.900066 H        1 SUBUNIT    0.0000
     80 H20          -2.403987  -13.221381   -1.539324 H        1 SUBUNIT    0.0000
     81 H21           1.894451   -3.338632   -1.546772 H        1 SUBUNIT    0.0000
     82 H22           2.064150   -3.150132    0.189315 H        1 SUBUNIT    0.0000
     83 H23          -0.373133   -7.612660   -0.038741 H        1 SUBUNIT    0.0000
     84 H24           4.082389   -4.007646   -0.717867 H        1 SUBUNIT    0.0000
     85 H25           6.146688   -7.676675   -0.419592 H        1 SUBUNIT    0.0000
     86 H26           2.764044  -10.909354    0.158808 H        1 SUBUNIT    0.0000
     87 H27           0.684122   -9.630439    0.136301 H        1 SUBUNIT    0.0000
     88 H28          -2.866582    5.318998   -0.556020 H        1 SUBUNIT    0.0000
     89 H29          -6.157696    4.812139    0.268285 H        1 SUBUNIT    0.0000
     90 H30          -7.157937    3.285626    0.312505 H        1 SUBUNIT    0.0000
     91 H31          -6.700468    4.040362   -1.235554 H        1 SUBUNIT    0.0000
     92 H32           1.347087   -1.251127   -0.698630 H        1 SUBUNIT    0.0000
     93 H33           6.407982   -4.261180   -1.609229 H        1 SUBUNIT    0.0000
     94 H34           8.690118   -5.084094   -1.008627 H        1 SUBUNIT    0.0000
     95 H35           7.755678   -6.400158   -1.795196 H        1 SUBUNIT    0.0000
     96 H36           7.972113   -6.393001   -0.011813 H        1 SUBUNIT    0.0000
     97 H37           0.167479  -10.778304   -1.404827 H        1 SUBUNIT    0.0000
     98 H38          -7.699289   -7.722091    0.037176 H        1 SUBUNIT    0.0000
     99 H39           5.999935   -9.515043   -0.206314 H        1 SUBUNIT    0.0000
    100 H40          -2.132795   -7.334776    0.596413 H        1 SUBUNIT    0.0000
    101 H41          -5.908668   -6.523452    1.034727 H        1 SUBUNIT    0.0000
    102 H42           6.625083   -4.279278    0.129847 H        1 SUBUNIT    0.0000
@<TRIPOS>BOND
     1    1    2 ar
     2    2    3 ar
     3    3    4 ar
     4    4    5 ar
     5    5    6 ar
     6    6    1 ar
     7    7    8 ar
     8    8    9 1
     9    3    9 1
    10    4    7 1
    11   10   11 ar
    12   11   12 ar
    13   12   13 ar
    14    7   13 ar
    15    8   10 ar
    16   14   15 1
    17   15   16 1
    18   16   17 1
    19   12   17 1
    20   13   14 1
    21   18   19 ar
    22   19   20 ar
    23   11   20 ar
    24   17   18 ar
    25   21   22 ar
    26   22   23 ar
    27   10   23 ar
    28   20   21 ar
    29   24   25 1
    30   25   26 ar
    31   26   27 1
    32   18   27 1
    33   19   24 1
    34   28   29 ar
    35   29   30 ar
    36   30   31 ar
    37   25   31 ar
    38   26   28 ar
    39   32   33 1
    40   33   34 1
    41   34   35 1
    42   29   35 1
    43   30   32 1
    44   36   37 ar
    45   37   38 ar
    46   31   36 ar
    47   32   38 ar
    48   39   40 1
    49   40   41 ar
    50   21   41 ar
    51   22   39 1
    52   42   43 ar
    53   43   44 ar
    54   44   45 ar
    55   40   45 ar
    56   41   42 ar
    57   46   47 ar
    58   47   48 ar
    59   48   49 ar
    60   44   49 ar
    61   45   46 ar
    62   50   51 ar
    63   51   52 ar
    64   43   52 ar
    65   49   50 ar
    66    1   53 1
    67    6   54 1
    68   23   55 1
    69   47   56 1
    70   56   57 1
    71   37   58 1
    72   28   59 1
    73   50   60 1
    74    2   61 1
    75    5   62 1
    76    9   63 1
    77    9   64 1
    78   14   65 1
    79   14   66 1
    80   15   67 1
    81   15   68 1
    82   16   69 1
    83   16   70 1
    84   24   71 1
    85   27   72 1
    86   33   73 1
    87   33   74 1
    88   34   75 1
    89   34   76 1
    90   35   77 1
    91   35   78 1
    92   36   79 1
    93   38   80 1
    94   39   81 1
    95   39   82 1
    96   42   83 1
    97   46   84 1
    98   48   85 1
    99   51   86 1
   100   52   87 1
   101   53   88 1
   102   54   89 1
   103   54   90 1
   104   54   91 1
   105   55   92 1
   106   56   93 1
   107   57   94 1
   108   57   95 1
   109   57   96 1
   110   58   97 1
   111   59   98 1
   112   60   99 1
   113   24  100 1
   114   27  101 1
   115   56  102 1
@<SCITEGIC>MOL_PROPERTY
Clean Energy
SciTegic.value.DoubleValue
239.661423

@<SCITEGIC>ATOM_PROPERTY
Formal Charge
SciTegic.value.StringValue
1 0
2 0
3 0
4 0
5 0
6 0
7 0
8 0
9 0
10 0
11 0
12 0
13 0
14 0
15 0
16 0
17 0
18 0
19 0
20 0
21 0
22 0
23 0
24 0
25 0
26 0
27 0
28 0
29 0
30 0
31 0
32 0
33 0
34 0
35 0
36 0
37 0
38 0
39 0
40 0
41 0
42 0
43 0
44 0
45 0
46 0
47 0
48 0
49 0
50 0
51 0
52 0
53 0
54 0
55 0
56 0
57 0
58 0
59 0
60 0
61 0
62 0
63 0
64 0
65 0
66 0
67 0
68 0
69 0
70 0
71 0
72 0
73 0
74 0
75 0
76 0
77 0
78 0
79 0
80 0
81 0
82 0
83 0
84 0
85 0
86 0
87 0
88 0
89 0
90 0
91 0
92 0
93 0
94 0
95 0
96 0
97 0
98 0
99 0
100 0
101 0
102 0

@<SCITEGIC>ATOM_PROPERTY
pdb_tempFactor
SciTegic.value.DoubleValue
1 0.00
2 0.00
3 0.00
4 0.00
5 0.00
6 0.00
7 0.00
8 0.00
9 0.00
10 0.00
11 0.00
12 0.00
13 0.00
14 0.00
15 0.00
16 0.00
17 0.00
18 0.00
19 0.00
20 0.00
21 0.00
22 0.00
23 0.00
24 0.00
25 0.00
26 0.00
27 0.00
28 0.00
29 0.00
30 0.00
31 0.00
32 0.00
33 0.00
34 0.00
35 0.00
36 0.00
37 0.00
38 0.00
39 0.00
40 0.00
41 0.00
42 0.00
43 0.00
44 0.00
45 0.00
46 0.00
47 0.00
48 0.00
49 0.00
50 0.00
51 0.00
52 0.00
53 0.00
54 0.00
55 0.00
56 0.00
57 0.00
58 0.00
59 0.00
60 0.00
61 0.00
62 0.00
63 0.00
64 0.00
65 0.00
66 0.00
67 0.00
68 0.00
69 0.00
70 0.00
71 0.00
72 0.00
73 0.00
74 0.00
75 0.00
76 0.00
77 0.00
78 0.00
79 0.00
80 0.00
81 0.00
82 0.00
83 0.00
84 0.00
85 0.00
86 0.00
87 0.00
88 0.00
89 0.00
90 0.00
91 0.00
92 0.00
93 0.00
94 0.00
95 0.00
96 0.00
97 0.00
98 0.00
99 0.00
100 0.00
101 0.00
102 0.00

@<SCITEGIC>ATOM_PROPERTY
pdb_occupancy
SciTegic.value.DoubleValue
1 1.00
2 1.00
3 1.00
4 1.00
5 1.00
6 1.00
7 1.00
8 1.00
9 1.00
10 1.00
11 1.00
12 1.00
13 1.00
14 1.00
15 1.00
16 1.00
17 1.00
18 1.00
19 1.00
20 1.00
21 1.00
22 1.00
23 1.00
24 1.00
25 1.00
26 1.00
27 1.00
28 1.00
29 1.00
30 1.00
31 1.00
32 1.00
33 1.00
34 1.00
35 1.00
36 1.00
37 1.00
38 1.00
39 1.00
40 1.00
41 1.00
42 1.00
43 1.00
44 1.00
45 1.00
46 1.00
47 1.00
48 1.00
49 1.00
50 1.00
51 1.00
52 1.00
53 1.00
54 1.00
55 1.00
56 1.00
57 1.00
58 1.00
59 1.00
60 1.00
61 1.00
62 1.00
63 1.00
64 1.00
65 1.00
66 1.00
67 1.00
68 1.00
69 1.00
70 1.00
71 1.00
72 1.00
73 1.00
74 1.00
75 1.00
76 1.00
77 1.00
78 1.00
79 1.00
80 1.00
81 1.00
82 1.00
83 1.00
84 1.00
85 1.00
86 1.00
87 1.00
88 1.00
89 1.00
90 1.00
91 1.00
92 1.00
93 1.00
94 1.00
95 1.00
96 1.00
97 1.00
98 1.00
99 1.00
100 1.00
101 1.00
102 1.00

