# Mol2 file generated by Materials Studio
@<TRIPOS>MOLECULE
PolyPS
50 52 3 0 0 
SMALL
USER_CHARGES


@<TRIPOS>ATOM
1 C -4.58387 1.57971 -0.2963 C.3 1 C8H9 0
2 C -3.07272 1.46059 -0.564369 C.3 1 C8H9 0
3 H -4.95513 0.523819 -0.0962048 H 1 C8H9 0
4 H -5.13264 2.01591 -1.19509 H 1 C8H9 0
5 H -2.56992 2.48131 -0.615296 H 1 C8H9 0
6 H -2.90651 0.893237 -1.53829 H 1 C8H9 0
7 C -2.51365 0.607713 0.587387 C.2 1 C8H9 0
8 C -3.4023 -0.483116 1.21056 C.2 1 C8H9 0
9 C -1.0964 0.855655 1.13624 C.2 1 C8H9 0
10 C -2.85781 -1.36478 2.34782 C.2 1 C8H9 0
11 H -4.46161 -0.645484 0.819734 H 1 C8H9 0
12 C -0.552094 -0.0227896 2.27897 C.2 1 C8H9 0
13 H -0.445944 1.67988 0.689672 H 1 C8H9 0
14 C -1.42827 -1.14156 2.87534 C.2 1 C8H9 0
15 H -3.51182 -2.18236 2.79837 H 1 C8H9 0
16 H 0.499466 0.152676 2.68151 H 1 C8H9 0
17 H -1.01973 -1.80132 3.70971 H 1 C8H9 0
18 C -6.28191 2.44338 1.44234 C.3 2 C8H8 0
19 C -4.83189 2.49395 0.920179 C.3 2 C8H8 0
20 H -6.42456 3.35233 2.11535 H 2 C8H8 0
21 H -6.45492 1.49603 2.05268 H 2 C8H8 0
22 H -4.13825 2.21071 1.77932 H 2 C8H8 0
23 C -4.57488 3.96407 0.53098 C.2 2 C8H8 0
24 C -5.29881 5.08818 1.29745 C.2 2 C8H8 0
25 C -3.67643 4.31397 -0.670338 C.2 2 C8H8 0
26 C -5.07076 6.56108 0.908457 C.2 2 C8H8 0
27 H -6.00331 4.82836 2.15545 H 2 C8H8 0
28 C -3.43716 5.78747 -1.05107 C.2 2 C8H8 0
29 H -3.19025 3.48393 -1.2814 H 2 C8H8 0
30 C -4.13069 6.91154 -0.259083 C.2 2 C8H8 0
31 H -5.59892 7.39171 1.48435 H 2 C8H8 0
32 H -2.7511 6.04579 -1.92323 H 2 C8H8 0
33 H -3.95475 8.00159 -0.542738 H 2 C8H8 0
34 H -8.97991 2.01115 1.67385 H 3 C8H9 0
35 C -8.70809 2.77164 0.868934 C.3 3 C8H9 0
36 C -7.31593 2.4429 0.300671 C.3 3 C8H9 0
37 H -9.47732 2.72724 0.0279733 H 3 C8H9 0
38 H -8.69712 3.81754 1.32038 H 3 C8H9 0
39 H -7.04232 3.20701 -0.49959 H 3 C8H9 0
40 C -7.3904 1.00088 -0.237912 C.2 3 C8H9 0
41 C -8.23974 0.668715 -1.47954 C.2 3 C8H9 0
42 C -6.65989 -0.125115 0.516612 C.2 3 C8H9 0
43 C -8.37775 -0.793375 -1.94702 C.2 3 C8H9 0
44 H -8.77856 1.5009 -2.04255 H 3 C8H9 0
45 C -6.78289 -1.58278 0.0392625 C.2 3 C8H9 0
46 H -6.01994 0.123972 1.42651 H 3 C8H9 0
47 C -7.64984 -1.91897 -1.18773 C.2 3 C8H9 0
48 H -9.01986 -1.0427 -2.85602 H 3 C8H9 0
49 H -6.23589 -2.41344 0.596775 H 3 C8H9 0
50 H -7.75034 -2.99955 -1.53597 H 3 C8H9 0
@<TRIPOS>BOND
1 1 2 1
2 1 3 1
3 1 4 1
4 2 5 1
5 2 6 1
6 2 7 1
7 7 8 un
8 9 7 un
9 8 10 un
10 8 11 1
11 9 12 un
12 9 13 1
13 10 14 un
14 10 15 1
15 14 12 un
16 12 16 1
17 14 17 1
18 18 19 1
19 18 20 1
20 18 21 1
21 19 22 1
22 19 23 1
23 23 24 un
24 25 23 un
25 24 26 un
26 24 27 1
27 25 28 un
28 25 29 1
29 26 30 un
30 26 31 1
31 30 28 un
32 28 32 1
33 30 33 1
34 1 19 1
35 35 34 1
36 35 36 1
37 35 37 1
38 35 38 1
39 36 39 1
40 36 40 1
41 40 41 un
42 42 40 un
43 41 43 un
44 41 44 1
45 42 45 un
46 42 46 1
47 43 47 un
48 43 48 1
49 47 45 un
50 45 49 1
51 47 50 1
52 18 36 1
@<TRIPOS>SUBSTRUCTURE
1 C8H9 1 **** **** Poly
2 C8H8 18 **** **** Poly
3 C8H9 34 **** **** Poly
