@<TRIPOS>MOLECULE
mol
12534 8356
SMALL
USER_CHARGES


@<TRIPOS>ATOM
1 O 18.601498966055885 28.98473122327526 35.873456253143154 O 0.0 **** -0.82
2 H 17.80968418958433 29.43347163439845 36.37070452591625 H 0.0 **** 0.41
3 H 18.20764993683676 28.036710715510697 35.84894005655957 H 0.0 **** 0.41
4 O 41.74609073804823 34.340889068453706 4.975759413163425 O 0.0 **** -0.82
5 H 42.673942703823194 34.457673072099006 4.735432993442861 H 0.0 **** 0.41
6 H 41.164569843703774 34.84373137427826 4.374659202475963 H 0.0 **** 0.41
7 O 4.291705746962073 4.598806620542527 15.830397801537734 O 0.0 **** -0.82
8 H 3.528014539833265 5.214835307150879 15.504793375858121 H 0.0 **** 0.41
9 H 4.830689498544814 5.313030236980277 16.360936931148515 H 0.0 **** 0.41
10 O 2.869720714083163 41.799886119256 43.09239837701245 O 0.0 **** -0.82
11 H 1.976756033659699 41.40759716454551 43.011422999397645 H 0.0 **** 0.41
12 H 2.9227342576849877 42.36402024639507 42.26199354781256 H 0.0 **** 0.41
13 O 21.39185488520799 5.591188764663565 47.18699339777459 O 0.0 **** -0.82
14 H 21.830801099677352 6.5129379282405475 47.15006198138347 H 0.0 **** 0.41
15 H 21.044231389375042 5.590112522945641 46.230735629020934 H 0.0 **** 0.41
16 O 31.679999516764525 29.487320845302822 21.206114633434282 O 0.0 **** -0.82
17 H 32.67234966786782 29.506518578176358 20.90018154454154 H 0.0 **** 0.41
18 H 31.840561179889065 30.14366018577645 21.989066247543192 H 0.0 **** 0.41
19 O 19.822895216217773 38.549112563890304 32.35151879386554 O 0.0 **** -0.82
20 H 20.635721399353713 38.79967473400263 32.93418249218557 H 0.0 **** 0.41
21 H 19.70429845206516 39.35572884708145 31.717250485107115 H 0.0 **** 0.41
22 O 17.20007201847538 28.506808774537014 13.000412136984115 O 0.0 **** -0.82
23 H 17.63051562792567 28.361694474881034 13.896495687005384 H 0.0 **** 0.41
24 H 16.22142360264835 28.753169506186026 13.285360103466953 H 0.0 **** 0.41
25 O 22.549362343128447 5.841382317300164 39.87799668970456 O 0.0 **** -0.82
26 H 23.255458344334645 6.497612452834954 40.255802614048264 H 0.0 **** 0.41
27 H 22.344810611533 5.27401418819133 40.666683264584854 H 0.0 **** 0.41
28 O 20.77882482811654 13.517775609653786 8.153861453374262 O 0.0 **** -0.82
29 H 20.430667586549802 14.438073706162683 8.030451564605457 H 0.0 **** 0.41
30 H 20.93590738003502 13.504915851259588 9.137270325296775 H 0.0 **** 0.41
31 O 33.580825854612016 6.481024043426251 2.361886291030558 O 0.0 **** -0.82
32 H 33.44710618865278 7.3542863083882875 2.8581131763052525 H 0.0 **** 0.41
33 H 33.911178534599514 5.7601629631580415 2.9817932350735106 H 0.0 **** 0.41
34 O 7.356851536584802 26.742318892304894 21.53108294010919 O 0.0 **** -0.82
35 H 6.460348943758155 26.25003027100354 21.461670821156567 H 0.0 **** 0.41
36 H 7.597827451323299 26.738733457786253 22.556339626028816 H 0.0 **** 0.41
37 O 22.756027780436806 37.86761855975878 18.310471290489165 O 0.0 **** -0.82
38 H 21.9882479250236 37.54423536978334 18.857277160045047 H 0.0 **** 0.41
39 H 23.512530587843518 37.96280832278918 18.970212938178324 H 0.0 **** 0.41
40 O 39.260208764614546 46.34890874123788 31.809807763867898 O 0.0 **** -0.82
41 H 38.48089801651702 46.54404713078662 31.14352433926276 H 0.0 **** 0.41
42 H 38.998370604041185 45.42187626595686 32.26485883237575 H 0.0 **** 0.41
43 O 9.240841556149217 47.002278323541404 34.02888259050309 O 0.0 **** -0.82
44 H 8.25285027072313 47.120477761274095 33.80235731503659 H 0.0 **** 0.41
45 H 9.286271697949932 46.75165555921967 34.99506986146698 H 0.0 **** 0.41
46 O 22.730734220244635 8.311225267979026 33.79471560935324 O 0.0 **** -0.82
47 H 22.551512699316582 9.246738795767378 34.121358319082525 H 0.0 **** 0.41
48 H 23.683005266320638 8.244157138551145 33.50171761139505 H 0.0 **** 0.41
49 O 44.00355046936449 26.739901154453065 39.376274793446576 O 0.0 **** -0.82
50 H 44.29844496196893 27.444238137313135 38.68793708848061 H 0.0 **** 0.41
51 H 44.95800806913938 26.32416779786942 39.675491864319746 H 0.0 **** 0.41
52 O 24.591463817583257 46.56012248370529 12.722218976416766 O 0.0 **** -0.82
53 H 25.168340322932256 47.17215190330536 12.140023422761775 H 0.0 **** 0.41
54 H 25.286969758580124 45.8831627927088 13.103445287142636 H 0.0 **** 0.41
55 O 22.432025445078295 32.47929640314156 34.714184198977634 O 0.0 **** -0.82
56 H 22.978071620877614 32.65373460224018 33.85604601025259 H 0.0 **** 0.41
57 H 22.836531312850127 31.604559317414893 35.12628396592471 H 0.0 **** 0.41
58 O 31.466553090696017 45.682589069788555 26.47479164461103 O 0.0 **** -0.82
59 H 32.01910055464903 46.290633413439224 27.036842643931365 H 0.0 **** 0.41
60 H 31.899153373488414 45.69435160429825 25.525716374934206 H 0.0 **** 0.41
61 O 16.693484619987075 18.159894396415407 46.736298606892824 O 0.0 **** -0.82
62 H 15.963973774626751 17.467147097668366 47.033196042840096 H 0.0 **** 0.41
63 H 16.235362925254606 19.036752038982492 46.8299089599751 H 0.0 **** 0.41
64 O 41.79873327473075 27.94506557608771 30.864741735634652 O 0.0 **** -0.82
65 H 41.59116570049428 28.352230176184452 29.91175695230379 H 0.0 **** 0.41
66 H 41.348252958298175 28.497522247139536 31.532391944008538 H 0.0 **** 0.41
67 O 28.162357450665727 42.08959087237147 9.715961291752953 O 0.0 **** -0.82
68 H 28.13338348899083 43.001637446593286 9.248145922569353 H 0.0 **** 0.41
69 H 27.72089898820873 41.459288011437096 9.054199166026425 H 0.0 **** 0.41
70 O 33.56778842993545 40.054706442841734 43.48147242646477 O 0.0 **** -0.82
71 H 33.81952576013729 39.16092072237407 43.94717413885777 H 0.0 **** 0.41
72 H 33.86753011637794 40.65803948340208 44.29199937633197 H 0.0 **** 0.41
73 O 40.30708566357661 28.4952188557089 10.249653286601141 O 0.0 **** -0.82
74 H 40.267080328572625 28.058011850450526 9.303792909855812 H 0.0 **** 0.41
75 H 40.74375510772406 27.818467249314523 10.8548714658612 H 0.0 **** 0.41
76 O 13.47808870595059 40.700216924646476 29.567296336304043 O 0.0 **** -0.82
77 H 12.627473178607865 40.73507433156967 30.13196643011857 H 0.0 **** 0.41
78 H 13.435620440117397 39.85865307720723 28.971537161606896 H 0.0 **** 0.41
79 O 25.07479018857026 12.752632477418375 29.001969020598228 O 0.0 **** -0.82
80 H 25.722719450479346 12.970515577949698 29.831997965643602 H 0.0 **** 0.41
81 H 25.52879490084463 12.845005210472998 28.07944852395173 H 0.0 **** 0.41
82 O 8.507903815214874 5.308977089265494 0.4937000020812121 O 0.0 **** -0.82
83 H 7.780174668331242 5.627027370824039 1.0781335027896688 H 0.0 **** 0.41
84 H 8.340996146887242 5.871382603449518 -0.35944438342419716 H 0.0 **** 0.41
85 O 20.947587900202706 27.86719371250366 2.337100109763882 O 0.0 **** -0.82
86 H 20.7725669920585 28.870609242250683 2.0909013279888646 H 0.0 **** 0.41
87 H 21.719658102717048 28.01292232960439 3.0386551209999024 H 0.0 **** 0.41
88 O 16.66162286835346 2.225910522165925 18.709309553233542 O 0.0 **** -0.82
89 H 17.525431712897642 1.7169384621453196 18.910202070813593 H 0.0 **** 0.41
90 H 16.61145768189374 3.06578209373989 19.2859496797078 H 0.0 **** 0.41
91 O 48.47560793912552 38.17267748211599 19.7910651892836 O 0.0 **** -0.82
92 H 48.247620458981444 39.11482528184656 20.111077783848472 H 0.0 **** 0.41
93 H 48.13982031499451 37.628372492412076 20.586582025892753 H 0.0 **** 0.41
94 O 14.275872414429406 30.84773203628973 4.386093243382639 O 0.0 **** -0.82
95 H 14.231843851501052 31.54165667668249 3.634237885772883 H 0.0 **** 0.41
96 H 14.526913556900759 30.068863859334154 3.7819860537887067 H 0.0 **** 0.41
97 O 28.46384587954332 34.71781838696491 3.4468747730369707 O 0.0 **** -0.82
98 H 28.911490700380458 33.81453834508176 3.314559098783233 H 0.0 **** 0.41
99 H 29.186412900924203 35.31993900001579 3.0423332855037692 H 0.0 **** 0.41
100 O 39.59300877572962 0.9884565833615169 1.830840187539735 O 0.0 **** -0.82
101 H 40.573884451212365 0.7844729698366858 1.528871581882818 H 0.0 **** 0.41
102 H 39.324681525296214 1.9246033000012 1.5021548452571594 H 0.0 **** 0.41
103 O 49.86373124106892 31.60348390566876 38.38946314450634 O 0.0 **** -0.82
104 H 49.36705241097498 31.050372090868628 37.70171546134287 H 0.0 **** 0.41
105 H 49.39077007432108 31.355840396325895 39.267477692652356 H 0.0 **** 0.41
106 O 24.038450288937568 27.86331405094581 40.389871823751996 O 0.0 **** -0.82
107 H 23.367793356744542 27.56572848807038 39.699642727709296 H 0.0 **** 0.41
108 H 23.80707745385476 27.43726270399012 41.3128792018011 H 0.0 **** 0.41
109 O 29.04604556091755 38.28809419765146 31.620692560113447 O 0.0 **** -0.82
110 H 28.802365154626024 39.00982708507498 32.22573866734111 H 0.0 **** 0.41
111 H 29.4100616275186 38.93590985806106 30.963592886419562 H 0.0 **** 0.41
112 O 28.989336983392885 38.13738105196015 3.961641688876532 O 0.0 **** -0.82
113 H 28.9888751335546 37.29176739444469 3.4129919134508673 H 0.0 **** 0.41
114 H 29.294347213154083 38.84726603679549 3.258803146822144 H 0.0 **** 0.41
115 O 5.555612387711335 36.88732611470504 23.790807290814126 O 0.0 **** -0.82
116 H 5.752572082482125 37.16860677024234 22.821724484426483 H 0.0 **** 0.41
117 H 5.444148318006697 37.734156905192194 24.235330803873637 H 0.0 **** 0.41
118 O 22.418497822679083 10.726355767385698 35.325496599056386 O 0.0 **** -0.82
119 H 22.21322641747175 11.701355992333845 35.006979827078034 H 0.0 **** 0.41
120 H 21.48483897765175 10.344724805956766 35.447564911367145 H 0.0 **** 0.41
121 O 20.173127682553485 36.618715182766046 17.058362820895194 O 0.0 **** -0.82
122 H 20.774225021209258 37.379074839615065 16.744027080495346 H 0.0 **** 0.41
123 H 19.24633285193482 37.08396060808437 17.00885346231692 H 0.0 **** 0.41
124 O 27.502630637428258 0.9017310732014444 22.452788612293222 O 0.0 **** -0.82
125 H 27.622236378770264 1.8912937253258384 22.648107274672526 H 0.0 **** 0.41
126 H 28.03697624692129 0.7953525124069191 21.605585211544106 H 0.0 **** 0.41
127 O 26.971263315757568 37.30336597025073 37.684900076295165 O 0.0 **** -0.82
128 H 26.904259015069588 36.36594261211735 38.12583174725104 H 0.0 **** 0.41
129 H 27.815599341994567 37.77496350330498 37.971554939263065 H 0.0 **** 0.41
130 O 42.67788808063613 38.77140514613904 11.338022810264462 O 0.0 **** -0.82
131 H 42.82791091090707 39.526221174624695 11.996543799663016 H 0.0 **** 0.41
132 H 43.42105337555863 38.83103424890718 10.672662848704718 H 0.0 **** 0.41
133 O 29.150819252085395 12.625237693272004 36.72803365827463 O 0.0 **** -0.82
134 H 29.342298445133398 12.843282923508884 35.742703467915476 H 0.0 **** 0.41
135 H 29.224245177262357 13.471649558763218 37.312777869514974 H 0.0 **** 0.41
136 O 24.025336128743856 37.638354873342735 14.348684010294427 O 0.0 **** -0.82
137 H 24.615330261357467 36.85741226931585 14.015385051638958 H 0.0 **** 0.41
138 H 24.737726237038853 38.176862421901426 14.852450619470787 H 0.0 **** 0.41
139 O 5.213962484486828 26.42641441660304 45.017200166319654 O 0.0 **** -0.82
140 H 5.519983165295571 25.51716705440334 44.73466616992291 H 0.0 **** 0.41
141 H 6.102252540844162 26.934476604151453 45.30023136407411 H 0.0 **** 0.41
142 O 47.77396949597664 23.24880817963298 24.798960751967503 O 0.0 **** -0.82
143 H 48.34643074202428 23.728065872633433 25.47150462116342 H 0.0 **** 0.41
144 H 47.27896956164515 23.90174597483049 24.109876817152028 H 0.0 **** 0.41
145 O 17.421056243849634 33.377946482564674 35.13504859235274 O 0.0 **** -0.82
146 H 17.974807112377732 33.15384066791527 35.90462149570122 H 0.0 **** 0.41
147 H 17.899089105865304 33.05452727274679 34.32925746831097 H 0.0 **** 0.41
148 O 5.036986484336083 24.51166518805315 4.3560474816474715 O 0.0 **** -0.82
149 H 4.989524718389205 23.82337279129417 3.618697532165641 H 0.0 **** 0.41
150 H 5.854956178887498 25.044574821041163 4.130389292575851 H 0.0 **** 0.41
151 O 30.579939308582514 3.906945394987967 17.86853574735334 O 0.0 **** -0.82
152 H 29.637289600067977 3.539223848343169 17.786708198295695 H 0.0 **** 0.41
153 H 30.979170659333946 3.688917713761287 16.97679793453943 H 0.0 **** 0.41
154 O 19.747729317572553 40.637783251346754 46.40797370461994 O 0.0 **** -0.82
155 H 20.322188407815613 41.09002016221732 47.13561848916372 H 0.0 **** 0.41
156 H 19.0767652328906 40.05935897188673 46.93376769410158 H 0.0 **** 0.41
157 O 21.38226259254574 38.598176892797824 15.244091910955952 O 0.0 **** -0.82
158 H 22.305414736848938 38.103143313156714 15.067556320961401 H 0.0 **** 0.41
159 H 21.145749276200817 39.23153696107376 14.423889127442258 H 0.0 **** 0.41
160 O 39.402959688160834 46.009205910048074 0.3093598426572015 O 0.0 **** -0.82
161 H 38.64815788133453 46.36297295609765 -0.2045716935587123 H 0.0 **** 0.41
162 H 40.15150775268106 46.542554958577064 -0.02357993058486585 H 0.0 **** 0.41
163 O 35.171421347889904 15.777648962186372 10.853221830982072 O 0.0 **** -0.82
164 H 34.802274489888816 15.479831397608857 11.722003405530977 H 0.0 **** 0.41
165 H 35.901987750513726 15.092889431698637 10.566589808523617 H 0.0 **** 0.41
166 O 27.436901118401344 17.854040138816913 13.407067881310851 O 0.0 **** -0.82
167 H 26.60198911246147 17.428534508494607 13.846181217138323 H 0.0 **** 0.41
168 H 28.19153450527698 17.570543858962026 14.042457824197982 H 0.0 **** 0.41
169 O 6.263276122080114 45.67562470960133 26.867493461949408 O 0.0 **** -0.82
170 H 6.240613804987497 46.556554800881145 27.328273709663222 H 0.0 **** 0.41
171 H 5.616861769245247 45.07518208838172 27.324782274563177 H 0.0 **** 0.41
172 O 36.04014124286648 5.963368393262072 32.39470096229401 O 0.0 **** -0.82
173 H 36.65718583595736 6.594194220068395 32.94256757468476 H 0.0 **** 0.41
174 H 35.831655319010636 6.367348694128914 31.523117194403547 H 0.0 **** 0.41
175 O 5.067823562764602 35.86407955440219 1.9028315462653822 O 0.0 **** -0.82
176 H 5.5537818861993244 34.94114890141128 2.081712846869891 H 0.0 **** 0.41
177 H 4.054496728638533 35.606614083867036 1.9554341505976893 H 0.0 **** 0.41
178 O 2.9231529143976474 29.39640269689005 15.865877759471616 O 0.0 **** -0.82
179 H 2.6957239420400896 29.794595263849427 16.739097476219058 H 0.0 **** 0.41
180 H 3.9408077489697604 29.5899701382945 15.825513131106433 H 0.0 **** 0.41
181 O 29.071390565591823 4.772737361394073 14.140643679941194 O 0.0 **** -0.82
182 H 28.775942393965575 5.211400753783116 15.030245673811251 H 0.0 **** 0.41
183 H 28.799813990962644 5.383180894265852 13.376321136179865 H 0.0 **** 0.41
184 O 20.97498241441063 38.94529598462873 11.027674349393173 O 0.0 **** -0.82
185 H 20.6189944532109 39.53605317959609 10.295733365175423 H 0.0 **** 0.41
186 H 20.166914895079916 38.38921452102185 11.293436353211911 H 0.0 **** 0.41
187 O 17.460713106933966 9.60258688082228 39.20666622642681 O 0.0 **** -0.82
188 H 18.09873204658939 10.377636823710134 39.154163947512416 H 0.0 **** 0.41
189 H 17.542732147788314 9.067413372540202 38.36872138453231 H 0.0 **** 0.41
190 O 18.030717556424804 6.698627773329888 23.320814360704095 O 0.0 **** -0.82
191 H 18.602399331999152 6.286897968976873 22.566894935129117 H 0.0 **** 0.41
192 H 18.445578969354628 6.385175837495294 24.176010648372742 H 0.0 **** 0.41
193 O 4.819992185977135 6.6205544591315615 46.73963079481132 O 0.0 **** -0.82
194 H 4.388767644246864 6.562812485803327 47.65857071503669 H 0.0 **** 0.41
195 H 4.416169306394356 7.40130065228897 46.24141271086239 H 0.0 **** 0.41
196 O 45.303090364777695 27.352728051345846 15.557329675640192 O 0.0 **** -0.82
197 H 45.37034511140246 27.668509538423848 14.583545238464769 H 0.0 **** 0.41
198 H 44.89816189185097 28.158875997327023 16.04863771709908 H 0.0 **** 0.41
199 O 48.746688809990694 14.44500609670705 49.763191432367734 O 0.0 **** -0.82
200 H 49.51267929410417 14.417107547499198 49.11570498065714 H 0.0 **** 0.41
201 H 48.06156614317963 14.991476393045996 49.28625976043385 H 0.0 **** 0.41
202 O 18.59621177377528 14.962531817829756 49.50671995412076 O 0.0 **** -0.82
203 H 17.815172865267662 15.599556222691405 49.73158092215305 H 0.0 **** 0.41
204 H 19.446877854956366 15.503157852245579 49.5777494199984 H 0.0 **** 0.41
205 O 4.04942515867036 30.871884542060414 3.536007384185652 O 0.0 **** -0.82
206 H 3.9498464109360825 30.493071769899924 2.5593903710984307 H 0.0 **** 0.41
207 H 3.2079611455139343 31.356844727283704 3.787960680581854 H 0.0 **** 0.41
208 O 43.13566691669161 46.61313711539313 23.399013972907923 O 0.0 **** -0.82
209 H 42.274768582791815 47.07743989688436 23.15747867243211 H 0.0 **** 0.41
210 H 43.95443163027628 47.22467314044553 23.076807824983202 H 0.0 **** 0.41
211 O 37.87989959552038 40.567672193485 19.53675992577212 O 0.0 **** -0.82
212 H 37.63108883843082 41.42878606152026 19.149978823640033 H 0.0 **** 0.41
213 H 38.73015634840502 40.27582251904732 19.13645698804552 H 0.0 **** 0.41
214 O 8.797993199553574 38.31047436945806 46.687479928018554 O 0.0 **** -0.82
215 H 7.827986168184426 37.94635890594522 46.806207945472856 H 0.0 **** 0.41
216 H 9.061432250858624 38.06830854968848 45.72664923013248 H 0.0 **** 0.41
217 O 15.13903903870434 6.5011175752452885 44.230627310862104 O 0.0 **** -0.82
218 H 15.176802790669441 6.792313271984575 45.195571115493436 H 0.0 **** 0.41
219 H 15.942218097568386 6.882673784890876 43.80840834210486 H 0.0 **** 0.41
220 O 30.89670488456083 14.594748794163396 28.5577051650501 O 0.0 **** -0.82
221 H 30.796934269935154 13.931098715099244 27.823078866441143 H 0.0 **** 0.41
222 H 30.9602049090441 14.056222650170469 29.42637792983641 H 0.0 **** 0.41
223 O 18.790333538198237 12.349097458484058 10.51076709456268 O 0.0 **** -0.82
224 H 18.85555365365104 11.492901693025548 9.957549404276307 H 0.0 **** 0.41
225 H 19.275108892179098 12.051132486290333 11.356283630851692 H 0.0 **** 0.41
226 O 47.72858964051206 24.117604013988185 39.01606580078672 O 0.0 **** -0.82
227 H 48.69338238171302 24.370671943114104 38.936434534832436 H 0.0 **** 0.41
228 H 47.703662783633625 23.176329341199278 38.606051255742884 H 0.0 **** 0.41
229 O 21.65586544482173 17.10800939144454 18.99495182447943 O 0.0 **** -0.82
230 H 21.654910945657846 17.805267294082313 19.670577646881284 H 0.0 **** 0.41
231 H 21.35719343861419 17.513005699164324 18.134977302150418 H 0.0 **** 0.41
232 O 7.831934007603805 15.37752133382908 24.214574023039233 O 0.0 **** -0.82
233 H 7.383233227221916 16.267635137804447 23.941054746915576 H 0.0 **** 0.41
234 H 7.3335450228972725 14.611577707450778 23.699042006399697 H 0.0 **** 0.41
235 O 21.109461945537408 16.448164129049605 49.44534886632096 O 0.0 **** -0.82
236 H 21.099537104481 17.060721106216242 50.20099145977166 H 0.0 **** 0.41
237 H 22.033385633948154 15.975385496030256 49.3940811722792 H 0.0 **** 0.41
238 O 33.043470766260825 44.794897040619205 16.9609561236405 O 0.0 **** -0.82
239 H 33.57566380699973 45.3982385103875 16.366479518460807 H 0.0 **** 0.41
240 H 33.82851775795089 44.553173685876274 17.539083126665417 H 0.0 **** 0.41
241 O 24.108741998906286 38.137318500718095 23.02605309092191 O 0.0 **** -0.82
242 H 23.604105684397968 38.21154376102593 22.133679417995552 H 0.0 **** 0.41
243 H 23.611384577655684 37.43859864589457 23.48688595462891 H 0.0 **** 0.41
244 O 1.2580352473598566 21.814885646969138 36.99746870949601 O 0.0 **** -0.82
245 H 0.40480435470826137 21.773850601923584 37.54915878081607 H 0.0 **** 0.41
246 H 1.2640357895090801 22.661493231021424 36.424634863874914 H 0.0 **** 0.41
247 O 17.652668294352605 37.629583005359585 17.004665834340063 O 0.0 **** -0.82
248 H 17.200878009005056 38.219139527774644 17.720610671105185 H 0.0 **** 0.41
249 H 16.95370378497079 37.59959994761789 16.290418359857654 H 0.0 **** 0.41
250 O 3.6263275728396422 13.733499015641906 17.244729760133875 O 0.0 **** -0.82
251 H 3.8126460264120468 14.29801632359564 16.365302517163954 H 0.0 **** 0.41
252 H 3.3595384268024446 14.367379332071337 18.055551178400783 H 0.0 **** 0.41
253 O 0.4326826949973537 10.727252914598704 10.631119100973795 O 0.0 **** -0.82
254 H -0.17626695694293915 10.06747415089394 10.990064335042968 H 0.0 **** 0.41
255 H -0.12332846378254203 11.567224057101003 10.721952885210781 H 0.0 **** 0.41
256 O 34.43357659987289 49.57288959066218 1.5115500607183279 O 0.0 **** -0.82
257 H 34.63659076428527 49.327236871035495 0.5629786891602251 H 0.0 **** 0.41
258 H 35.12109854608687 50.28316952732494 1.7102867912933775 H 0.0 **** 0.41
259 O 20.49323266367445 49.55110452177817 0.8342559315793636 O 0.0 **** -0.82
260 H 21.089396215169742 48.81257755616447 0.5195997382248905 H 0.0 **** 0.41
261 H 20.47980587939114 50.3088907435996 0.1259498047041916 H 0.0 **** 0.41
262 O 30.89188943284601 9.052001216729167 27.949893888996854 O 0.0 **** -0.82
263 H 30.632724894405943 8.525846248378143 27.02923732886518 H 0.0 **** 0.41
264 H 31.68561099198845 9.662792337242186 27.775205062158165 H 0.0 **** 0.41
265 O 4.926270902299727 0.7665846202427377 1.0447179200203394 O 0.0 **** -0.82
266 H 4.3587102027777505 -0.05096562270605176 1.1759070302395571 H 0.0 **** 0.41
267 H 5.797519329071932 0.29658768591039664 0.8544028260624188 H 0.0 **** 0.41
268 O 36.6374888391897 46.862177113421126 30.620832049316512 O 0.0 **** -0.82
269 H 36.16738927363066 46.93348517149423 31.57183874036968 H 0.0 **** 0.41
270 H 36.82929363029381 47.80029657478289 30.397977985416972 H 0.0 **** 0.41
271 O 33.04100335351182 27.532668529589802 8.71615212318984 O 0.0 **** -0.82
272 H 32.55487795816908 27.954156524246336 9.476846738723852 H 0.0 **** 0.41
273 H 33.9615570475373 27.105954913710264 8.977630783952264 H 0.0 **** 0.41
274 O 4.616720692790679 39.35749859089176 24.853916265581752 O 0.0 **** -0.82
275 H 4.833372989973022 40.239762140668816 24.252929476235437 H 0.0 **** 0.41
276 H 3.6461323579963647 39.086490813101506 24.62856688509421 H 0.0 **** 0.41
277 O 17.126251334319676 26.92437334577185 49.13351348595047 O 0.0 **** -0.82
278 H 17.80263469052764 27.60857425713427 48.74976302688924 H 0.0 **** 0.41
279 H 16.97699201826981 27.28318789075653 50.06398158676339 H 0.0 **** 0.41
280 O 11.81779675426047 39.48659286242806 5.880354866664267 O 0.0 **** -0.82
281 H 11.514792886843829 38.5032652342721 5.957230068101061 H 0.0 **** 0.41
282 H 11.528042957146944 40.050264330630036 6.64913602732306 H 0.0 **** 0.41
283 O 29.442776487029466 40.58981051072327 2.5857100219549807 O 0.0 **** -0.82
284 H 30.188039271950885 41.03734188530397 2.1557916750416837 H 0.0 **** 0.41
285 H 29.17915444349122 41.150279872914076 3.3971072503778217 H 0.0 **** 0.41
286 O 36.325969636913456 7.589194006685702 0.6193502690571714 O 0.0 **** -0.82
287 H 35.890061385726824 7.094476360016067 1.359275586224178 H 0.0 **** 0.41
288 H 37.24441008777353 7.240882058111211 0.8891361207759262 H 0.0 **** 0.41
289 O 42.962092232854 46.73971639346161 17.694539343104815 O 0.0 **** -0.82
290 H 43.088117521289135 47.07825615934073 18.64909074528828 H 0.0 **** 0.41
291 H 42.958924217970825 45.76344277389267 17.80383592058729 H 0.0 **** 0.41
292 O 31.274088576226433 47.60563312017929 6.363233623948794 O 0.0 **** -0.82
293 H 31.088217125293852 48.44278772423044 5.819926497272654 H 0.0 **** 0.41
294 H 31.178955548253402 48.050053474844006 7.277880914971647 H 0.0 **** 0.41
295 O 45.68626058152151 49.29338756101484 10.63403587693064 O 0.0 **** -0.82
296 H 44.85082800665422 49.26772511903105 11.16546817916614 H 0.0 **** 0.41
297 H 46.35633307077477 49.277295283254865 11.44533714615691 H 0.0 **** 0.41
298 O 13.38471186353325 32.84284698911709 22.937635206741717 O 0.0 **** -0.82
299 H 13.062177568992228 33.831106372943545 22.762042074588834 H 0.0 **** 0.41
300 H 13.62201697108169 32.430626040662275 22.0723687336728 H 0.0 **** 0.41
301 O 47.26787766298579 30.7899314199658 9.273815104185758 O 0.0 **** -0.82
302 H 47.87259975102792 31.226150400843398 8.54720298391274 H 0.0 **** 0.41
303 H 47.74122337098662 31.049211081177173 10.144903978847552 H 0.0 **** 0.41
304 O 45.21540302311559 47.593641503469435 6.030917510693469 O 0.0 **** -0.82
305 H 45.89833910172501 47.96444501135205 5.381214040949369 H 0.0 **** 0.41
306 H 44.57675696988465 46.99823823966246 5.53467419330083 H 0.0 **** 0.41
307 O 39.902170997366575 4.156252393920925 6.034148955475871 O 0.0 **** -0.82
308 H 40.62839805271466 4.21094742831296 5.323801036016292 H 0.0 **** 0.41
309 H 40.27528737135482 3.6397424443653956 6.834593506178081 H 0.0 **** 0.41
310 O 46.986484864562414 40.463452809388315 15.697701886509208 O 0.0 **** -0.82
311 H 47.97137815846337 40.29688712917354 15.359755436116686 H 0.0 **** 0.41
312 H 46.541335723794006 40.34513949747728 14.771841936466217 H 0.0 **** 0.41
313 O 19.082926931652242 19.96317478375657 42.21856779385754 O 0.0 **** -0.82
314 H 19.585667616438386 20.764479375129824 41.76083072835695 H 0.0 **** 0.41
315 H 18.306719662537713 20.424780356378164 42.62553421283044 H 0.0 **** 0.41
316 O 16.78873483953242 44.055746671671955 47.490326088013425 O 0.0 **** -0.82
317 H 17.383526961272093 43.814445534498645 48.248063089483466 H 0.0 **** 0.41
318 H 16.487093294972357 43.230268670856475 47.028587081148004 H 0.0 **** 0.41
319 O 37.22341893921812 6.655007887456624 19.07974798036761 O 0.0 **** -0.82
320 H 37.26096334899158 5.914223238108865 19.777918150384803 H 0.0 **** 0.41
321 H 37.85418819372773 7.245003959321503 19.559497968125985 H 0.0 **** 0.41
322 O 33.53097812272063 6.019257691804299 23.996117490099902 O 0.0 **** -0.82
323 H 32.803887266868834 5.600182763085989 24.549409816871307 H 0.0 **** 0.41
324 H 33.13286704811051 6.847039137734832 23.62346795503709 H 0.0 **** 0.41
325 O 26.324426906578545 45.67666938011333 20.60076686322703 O 0.0 **** -0.82
326 H 25.794216005015926 45.90425966072453 21.401045255409837 H 0.0 **** 0.41
327 H 26.713394790115455 46.58702697243463 20.298515257937094 H 0.0 **** 0.41
328 O 39.285417232290996 3.178387244052921 0.04468231293517795 O 0.0 **** -0.82
329 H 39.534227885209575 3.0631004063603484 -0.9475308731612344 H 0.0 **** 0.41
330 H 40.017381290625266 3.9374031009733415 0.26777704708941574 H 0.0 **** 0.41
331 O 34.68001710933865 32.59120333700043 24.946097186941383 O 0.0 **** -0.82
332 H 34.136992226272056 33.418951836194644 25.111025948608823 H 0.0 **** 0.41
333 H 35.374343405695406 32.47786870130844 25.67205784107015 H 0.0 **** 0.41
334 O 34.76604204073214 29.331920987668923 25.371911721920675 O 0.0 **** -0.82
335 H 34.51081982270478 30.27220864191207 24.974479728053 H 0.0 **** 0.41
336 H 35.4162337802877 29.591293221852155 26.15413010350982 H 0.0 **** 0.41
337 O 0.6573766503757597 26.22971677590516 5.568954987636793 O 0.0 **** -0.82
338 H 0.7189308511695316 27.011420288419398 6.2180632796125295 H 0.0 **** 0.41
339 H 0.5503937074121552 25.399248583716474 6.111153240656655 H 0.0 **** 0.41
340 O 8.436068377613168 13.671030184369044 1.7133146007363418 O 0.0 **** -0.82
341 H 8.843495273141432 12.974904569030826 1.160184078685104 H 0.0 **** 0.41
342 H 9.23274802831649 14.30522725550074 1.9210676719465387 H 0.0 **** 0.41
343 O 16.33944781581434 41.44695012739426 45.7248833929945 O 0.0 **** -0.82
344 H 17.191156283962357 41.42317873989906 45.18912892222928 H 0.0 **** 0.41
345 H 15.59006416018876 41.14920794647429 45.11419714060715 H 0.0 **** 0.41
346 O 3.662097195746877 11.636321438725858 26.05851095995422 O 0.0 **** -0.82
347 H 3.392588246069866 12.604720487212816 25.8398634257761 H 0.0 **** 0.41
348 H 4.610834740876238 11.606827829477908 25.685783351299378 H 0.0 **** 0.41
349 O 39.743285315120616 17.17047526781619 5.752922405581671 O 0.0 **** -0.82
350 H 39.939040024344116 17.986206624497548 5.189296944371193 H 0.0 **** 0.41
351 H 38.76056465903065 16.92358703232456 5.699028494016098 H 0.0 **** 0.41
352 O 48.29425426786132 31.726647212457117 28.25501005712816 O 0.0 **** -0.82
353 H 48.39767811806794 32.7184176182798 27.969361743429697 H 0.0 **** 0.41
354 H 49.041590628801885 31.18644035009854 27.913616672662272 H 0.0 **** 0.41
355 O 42.90860491285652 30.627334799765066 3.131471207801688 O 0.0 **** -0.82
356 H 43.336760434960034 29.951340653360703 3.7847446198474657 H 0.0 **** 0.41
357 H 42.164172933626524 30.17831764647291 2.7016858210356816 H 0.0 **** 0.41
358 O 2.286222584238679 48.93538811842018 38.020303770451584 O 0.0 **** -0.82
359 H 3.1277906983159554 49.483039578408544 38.11022727506831 H 0.0 **** 0.41
360 H 1.6180944697128012 49.50906406393525 38.53003947517474 H 0.0 **** 0.41
361 O 18.946035100740637 19.82853301180128 20.964140036284036 O 0.0 **** -0.82
362 H 18.94290881079524 20.26868903546926 21.86428884622825 H 0.0 **** 0.41
363 H 19.88169818735815 19.32661735544841 20.910404898350436 H 0.0 **** 0.41
364 O 41.119063194729904 45.2492958684191 37.42895767479838 O 0.0 **** -0.82
365 H 41.56678747161319 44.534811058652025 37.95706288392895 H 0.0 **** 0.41
366 H 41.08174437273748 44.86114758667963 36.44809460477748 H 0.0 **** 0.41
367 O 23.569163001128857 33.5652659906575 32.59132389491944 O 0.0 **** -0.82
368 H 23.9739677807234 32.96133973556533 31.91744579953735 H 0.0 **** 0.41
369 H 23.14212198008316 34.3274092922545 32.08564500213323 H 0.0 **** 0.41
370 O 29.834400698974072 6.249593164622418 48.59842114149522 O 0.0 **** -0.82
371 H 30.657597525431193 6.334422998441461 47.988388662472936 H 0.0 **** 0.41
372 H 29.05309904518699 6.481600416262843 48.001694465551786 H 0.0 **** 0.41
373 O 27.063325386360365 14.953381915354772 25.931374590125646 O 0.0 **** -0.82
374 H 26.97028562062244 14.768560182753038 24.959505346054893 H 0.0 **** 0.41
375 H 26.09332301506133 15.218294902682896 26.20707614950633 H 0.0 **** 0.41
376 O 29.17847671913651 40.011802536888794 48.52061583189662 O 0.0 **** -0.82
377 H 30.115196524103798 39.66791230255607 48.711986683147295 H 0.0 **** 0.41
378 H 28.5664089935759 39.51424003596941 49.227571789706296 H 0.0 **** 0.41
379 O 33.80566436618295 29.813709585797934 28.371473437330824 O 0.0 **** -0.82
380 H 34.66344782872382 29.38261410847099 28.372940792512097 H 0.0 **** 0.41
381 H 33.32796127286006 29.119686431911493 28.898332061508402 H 0.0 **** 0.41
382 O 34.310036912181396 13.187225358032343 26.384397663512733 O 0.0 **** -0.82
383 H 35.23318519738261 13.102211298151403 25.98825520424598 H 0.0 **** 0.41
384 H 34.288197791339016 13.8944312144165 27.098116269605246 H 0.0 **** 0.41
385 O 28.31907485051143 24.3121486148847 47.96141067879403 O 0.0 **** -0.82
386 H 27.504204940817704 24.51471742280718 48.536474358527684 H 0.0 **** 0.41
387 H 28.39830131145155 23.335062442258494 47.74575578548841 H 0.0 **** 0.41
388 O 43.886069916276824 4.635980179650062 29.57453395959749 O 0.0 **** -0.82
389 H 43.45371212403587 5.306247042578747 28.964647216545934 H 0.0 **** 0.41
390 H 44.66863185158247 5.1057572029842575 30.054498490101633 H 0.0 **** 0.41
391 O 11.795814508513816 28.625389422551223 24.77335590078432 O 0.0 **** -0.82
392 H 11.48700496987396 28.991491885657165 23.86530538781962 H 0.0 **** 0.41
393 H 11.550372116960526 27.656744817808114 24.79291954574995 H 0.0 **** 0.41
394 O 27.019578864650782 19.472724461107664 17.20495790140912 O 0.0 **** -0.82
395 H 26.77169779204489 20.397165197227608 16.918084453164 H 0.0 **** 0.41
396 H 28.004264995694115 19.509944564233848 17.388257400012375 H 0.0 **** 0.41
397 O 44.85003064165603 18.36964139243071 25.138317366976935 O 0.0 **** -0.82
398 H 44.31751711959254 19.19894185755864 25.210067155752995 H 0.0 **** 0.41
399 H 45.135620943949036 18.228282094021953 24.21033393245324 H 0.0 **** 0.41
400 O 5.5377272363193315 3.8602062380691944 25.046762802482963 O 0.0 **** -0.82
401 H 5.882238153289102 4.274943750953697 24.207565913885688 H 0.0 **** 0.41
402 H 4.58802863679438 3.6058796037290626 24.839525149582485 H 0.0 **** 0.41
403 O 6.048352642083114 49.133483726477934 28.426253446670852 O 0.0 **** -0.82
404 H 6.608866924546555 49.97201902770694 28.385179082565564 H 0.0 **** 0.41
405 H 6.819264476786005 48.49380958463488 28.562329766521124 H 0.0 **** 0.41
406 O 48.46129334173665 39.41253880214137 25.95889137545235 O 0.0 **** -0.82
407 H 47.51971035833975 39.83581093189909 26.118582668950708 H 0.0 **** 0.41
408 H 48.98551438685366 39.808626811087514 25.212699207745995 H 0.0 **** 0.41
409 O 25.24868043594725 31.358880347893017 16.178358755581662 O 0.0 **** -0.82
410 H 25.422995338748496 32.319287451550345 15.935707289021053 H 0.0 **** 0.41
411 H 24.96057775025437 31.3470107986816 17.140602675581174 H 0.0 **** 0.41
412 O 40.804570758389026 21.849007848075964 15.516500572781748 O 0.0 **** -0.82
413 H 40.01800613599569 22.35135300762592 15.104797451170164 H 0.0 **** 0.41
414 H 40.93681595224821 22.29313515171079 16.42672329390553 H 0.0 **** 0.41
415 O 28.857975943382847 41.273059055155805 27.758018335894462 O 0.0 **** -0.82
416 H 29.31793191289631 42.16749988741648 27.913956886431926 H 0.0 **** 0.41
417 H 29.136116829862004 40.86093751766401 26.898427147346595 H 0.0 **** 0.41
418 O 32.5695430345877 14.05509020942119 5.566645404026339 O 0.0 **** -0.82
419 H 33.25027245024963 13.983043543277429 4.819924123685169 H 0.0 **** 0.41
420 H 31.66477081231257 14.213531517762005 5.063892620696301 H 0.0 **** 0.41
421 O 8.459965916257943 13.447621273384947 44.94325566845439 O 0.0 **** -0.82
422 H 9.40582889450627 13.23646448459074 45.21787625649854 H 0.0 **** 0.41
423 H 8.384367551559226 12.962512577067798 44.04731208970057 H 0.0 **** 0.41
424 O 1.79419966694303 10.253528741234428 18.376897678202486 O 0.0 **** -0.82
425 H 1.6734638592033289 9.309344320593642 18.85418476473056 H 0.0 **** 0.41
426 H 0.985302398785952 10.806768364952648 18.5179322950199 H 0.0 **** 0.41
427 O 8.943730527588707 21.42093339972766 33.03590081269657 O 0.0 **** -0.82
428 H 8.827895818761418 22.388128195462997 32.75622344124667 H 0.0 **** 0.41
429 H 8.828525216565165 20.898883400580786 32.1972925072928 H 0.0 **** 0.41
430 O 31.221906806541355 46.571817660296986 39.88497594600488 O 0.0 **** -0.82
431 H 30.76191224372789 46.29612600278252 40.75855212005413 H 0.0 **** 0.41
432 H 30.870029751038604 45.963624533002374 39.12448126937544 H 0.0 **** 0.41
433 O 13.044783094477616 5.55582438685267 0.21828902021064778 O 0.0 **** -0.82
434 H 12.146323875223581 6.0244798745194075 0.3671691817318177 H 0.0 **** 0.41
435 H 12.705438423543157 4.671800426034167 -0.16954098746623458 H 0.0 **** 0.41
436 O 4.670260828441623 37.18884448224332 29.57028713967466 O 0.0 **** -0.82
437 H 5.2199429014719065 36.460553021062985 29.181625270591923 H 0.0 **** 0.41
438 H 4.637726263011854 37.87624344517173 28.84169914737309 H 0.0 **** 0.41
439 O 43.537804286318234 22.372608563921638 39.31821611249653 O 0.0 **** -0.82
440 H 42.95395416013861 21.66143293548805 38.91933618449145 H 0.0 **** 0.41
441 H 43.431378349542115 23.22061020811518 38.72808617372286 H 0.0 **** 0.41
442 O 6.605014476853367 9.64181529599165 41.78565868125712 O 0.0 **** -0.82
443 H 6.941726227330149 8.694991368849134 41.55243877970847 H 0.0 **** 0.41
444 H 7.436127044634422 10.099709907860905 42.0456973192165 H 0.0 **** 0.41
445 O 7.379338440076905 10.293119689439875 7.670638762703074 O 0.0 **** -0.82
446 H 6.43158315952576 10.600539260983071 7.990765783719456 H 0.0 **** 0.41
447 H 7.31238212507094 9.242354364495341 7.609756807444964 H 0.0 **** 0.41
448 O 37.20988056805413 46.86635067799043 24.7295559922731 O 0.0 **** -0.82
449 H 36.55019121371814 47.05372279870808 25.47658821505923 H 0.0 **** 0.41
450 H 38.10567502215484 47.09283657121264 25.17621210043323 H 0.0 **** 0.41
451 O 41.257727438889006 45.271485881112675 41.64392186894408 O 0.0 **** -0.82
452 H 40.39047841000625 45.40117096341034 42.11315137107846 H 0.0 **** 0.41
453 H 41.20144697150563 44.53669308316283 40.955029610717794 H 0.0 **** 0.41
454 O 41.618826356399545 31.307023895396622 49.2680261894756 O 0.0 **** -0.82
455 H 42.29142821962944 32.12514779140666 49.15451293694469 H 0.0 **** 0.41
456 H 41.39834510125863 31.309548660329167 50.25136391058777 H 0.0 **** 0.41
457 O 37.349927240373724 36.55626558440836 25.85202540073327 O 0.0 **** -0.82
458 H 37.23123248786965 35.98801394863733 25.07260488709039 H 0.0 **** 0.41
459 H 38.38037906923363 36.66580302464904 25.990161593199044 H 0.0 **** 0.41
460 O 31.711271499474027 24.06420100891632 15.231749645229954 O 0.0 **** -0.82
461 H 30.72965169245959 24.344847261797206 15.067360744508976 H 0.0 **** 0.41
462 H 31.817549886686475 24.411333683160084 16.199133637229796 H 0.0 **** 0.41
463 O 12.170417236309973 29.406074794347106 31.425516417300088 O 0.0 **** -0.82
464 H 12.387700105294627 29.018094058758525 30.522745176510966 H 0.0 **** 0.41
465 H 12.987624598329433 29.914918414068868 31.702216252914713 H 0.0 **** 0.41
466 O 17.37204882250333 24.562105790490836 34.0548005211093 O 0.0 **** -0.82
467 H 16.493311679919717 24.19473634124315 33.706693764543246 H 0.0 **** 0.41
468 H 17.94991415032499 24.97563968138685 33.33466230242228 H 0.0 **** 0.41
469 O 11.840450824847291 43.58735962180359 35.91332545043389 O 0.0 **** -0.82
470 H 10.839780898439074 43.547371628164235 35.7293618991095 H 0.0 **** 0.41
471 H 12.335241081691711 43.11677837652514 35.13276040449104 H 0.0 **** 0.41
472 O 37.354039977773624 35.91962915069223 40.82374524950805 O 0.0 **** -0.82
473 H 37.90006303286935 36.56064480546221 40.21445639554454 H 0.0 **** 0.41
474 H 36.384139849904074 36.03668206418645 40.50696056453077 H 0.0 **** 0.41
475 O 48.458378240887626 46.29187627025625 43.88611315955841 O 0.0 **** -0.82
476 H 48.073082503595096 45.390511753547585 43.664027008815225 H 0.0 **** 0.41
477 H 48.198032507649174 46.89067046895471 43.11177966602826 H 0.0 **** 0.41
478 O 21.66107456300607 31.002169449529063 21.12708802428614 O 0.0 **** -0.82
479 H 20.76385565345529 31.353973526862422 20.793615778157562 H 0.0 **** 0.41
480 H 21.698687469329588 30.000007861319727 20.884265840563558 H 0.0 **** 0.41
481 O 32.80647542281869 48.94246134547273 43.173827274800196 O 0.0 **** -0.82
482 H 32.89709284073328 49.84207107132782 42.79558667853508 H 0.0 **** 0.41
483 H 31.815105644119146 48.796625212792364 43.28957025080204 H 0.0 **** 0.41
484 O 34.49294757461598 2.585429447432771 47.23304978132193 O 0.0 **** -0.82
485 H 34.42856919041441 3.6164426431240515 47.343462446074135 H 0.0 **** 0.41
486 H 34.68190874081969 2.300192214193152 48.20698328751533 H 0.0 **** 0.41
487 O 26.45729445813474 7.295875854780693 20.511539302959054 O 0.0 **** -0.82
488 H 27.27999291646193 7.298480477842383 19.852324386698363 H 0.0 **** 0.41
489 H 25.550586892317675 7.095102806671016 20.051790577391582 H 0.0 **** 0.41
490 O 3.637680282513488 33.046830326679526 7.064264183714726 O 0.0 **** -0.82
491 H 2.8020124963970554 33.075972262402594 7.599465631680543 H 0.0 **** 0.41
492 H 3.8750010525868785 34.00240119158557 6.862195458477349 H 0.0 **** 0.41
493 O 7.00016791234853 49.412310580782915 0.4232418215467616 O 0.0 **** -0.82
494 H 7.828325407116836 49.35182264314709 1.001785824021412 H 0.0 **** 0.41
495 H 7.366490846934063 49.64191256590013 -0.4880397927515574 H 0.0 **** 0.41
496 O 41.58789088711089 2.4777369123478845 7.885437478593651 O 0.0 **** -0.82
497 H 41.176377817923694 2.4174476922787376 8.800700295756045 H 0.0 **** 0.41
498 H 41.286418670845855 1.5382701035628188 7.546534128892333 H 0.0 **** 0.41
499 O 33.86782805011068 15.769188183322823 38.53550664384634 O 0.0 **** -0.82
500 H 33.77908912946882 15.106876574701861 39.278962513885105 H 0.0 **** 0.41
501 H 34.87095186093661 15.842730641536265 38.48209636957555 H 0.0 **** 0.41
502 O 19.909734394182887 26.38543224808924 42.04041854350635 O 0.0 **** -0.82
503 H 20.416863197884233 27.229802460438336 42.33609756284118 H 0.0 **** 0.41
504 H 19.188812504110924 26.08520045321163 42.75239572838041 H 0.0 **** 0.41
505 O 21.01088919147105 2.706411574747065 43.954227119299695 O 0.0 **** -0.82
506 H 21.551692095675058 2.1068293861944767 44.660718431785476 H 0.0 **** 0.41
507 H 20.130550329091164 2.2599752405513343 43.687845044096726 H 0.0 **** 0.41
508 O 32.07532941937057 2.761683254470782 12.691541314199544 O 0.0 **** -0.82
509 H 32.26649370917126 2.979222700087952 11.733675637407403 H 0.0 **** 0.41
510 H 31.13447481722112 2.314722810299216 12.812151771591521 H 0.0 **** 0.41
511 O 24.61933704643957 9.932538845092047 29.14634443415964 O 0.0 **** -0.82
512 H 25.31754156150801 9.271022710608356 28.874617506565066 H 0.0 **** 0.41
513 H 25.082681551842068 10.738925095658477 28.71749934941042 H 0.0 **** 0.41
514 O 6.212223853337047 19.942354327750436 27.29527947804031 O 0.0 **** -0.82
515 H 6.736970638530813 19.18369894933997 27.666300706458443 H 0.0 **** 0.41
516 H 6.159730601316317 19.906397236165834 26.249616130744098 H 0.0 **** 0.41
517 O 45.92172737873388 5.800711807635207 30.57045194139962 O 0.0 **** -0.82
518 H 46.53944720685165 5.963818052346331 29.765349288691 H 0.0 **** 0.41
519 H 46.53577698091328 5.549229524316226 31.3931204086736 H 0.0 **** 0.41
520 O 34.7258373885436 46.60581496805181 47.87135414067128 O 0.0 **** -0.82
521 H 33.99892791505548 47.00688965746888 47.26454493967468 H 0.0 **** 0.41
522 H 34.78912363068162 45.59383023145807 47.58524202773198 H 0.0 **** 0.41
523 O 4.946656623163851 36.65974256327986 9.826218310552006 O 0.0 **** -0.82
524 H 4.974775232238366 37.62367838489201 9.513806187078105 H 0.0 **** 0.41
525 H 5.673985715482322 36.08958221961735 9.382621756193398 H 0.0 **** 0.41
526 O 25.59232757524704 39.603396943721606 15.420591478636325 O 0.0 **** -0.82
527 H 26.341288779425774 40.09040215707829 14.909233785627649 H 0.0 **** 0.41
528 H 25.70861780821092 39.886953585980905 16.378900279884817 H 0.0 **** 0.41
529 O 36.785142896276284 23.756462518207318 41.63124195043524 O 0.0 **** -0.82
530 H 36.66333270587674 24.602491253687106 41.10899409468368 H 0.0 **** 0.41
531 H 36.404629413609655 23.031475637834713 41.06700625016912 H 0.0 **** 0.41
532 O 31.015062448470818 40.65136263959206 34.962244189874106 O 0.0 **** -0.82
533 H 31.88555265457724 40.09771774791203 34.98097779759475 H 0.0 **** 0.41
534 H 31.33821658362006 41.598253298413084 35.08646019081855 H 0.0 **** 0.41
535 O 47.236127146308945 30.35503734415225 49.102811230053454 O 0.0 **** -0.82
536 H 47.16912811982962 29.696624664750885 48.35888482000677 H 0.0 **** 0.41
537 H 46.642134627569305 29.89610260462746 49.79315060587451 H 0.0 **** 0.41
538 O 42.433082855001174 0.7232141473399158 17.292167501211694 O 0.0 **** -0.82
539 H 42.27267832938418 -0.1189845017243556 16.74721198237981 H 0.0 **** 0.41
540 H 43.42690478034086 0.8077408276657839 17.60815319398388 H 0.0 **** 0.41
541 O 22.179272175204986 0.5779492271827422 26.92137183560792 O 0.0 **** -0.82
542 H 23.110138502932983 0.4477054109031826 27.392665366955654 H 0.0 **** 0.41
543 H 22.158478516031167 1.445472406597247 26.355805240897013 H 0.0 **** 0.41
544 O 15.81064969037026 18.220056124752986 31.136473294229017 O 0.0 **** -0.82
545 H 16.263545859572545 19.026114915512025 30.674738751872532 H 0.0 **** 0.41
546 H 14.849691129630862 18.42201603628112 31.251484380401976 H 0.0 **** 0.41
547 O 34.85288922180005 35.34534586513139 48.68659478611102 O 0.0 **** -0.82
548 H 34.5241611808736 34.50454547114663 48.29039936378928 H 0.0 **** 0.41
549 H 34.17527841281021 35.510270450935195 49.46367630140158 H 0.0 **** 0.41
550 O 36.787588918084985 8.945749536169457 42.74237640284434 O 0.0 **** -0.82
551 H 36.89667905393665 9.527915764512912 41.941056558876646 H 0.0 **** 0.41
552 H 36.58261442269411 8.070626609628075 42.39508506835555 H 0.0 **** 0.41
553 O 1.4933200079557378 6.3435217163860615 26.560243675095602 O 0.0 **** -0.82
554 H 1.1795411038720183 7.301811428643355 26.55625745984512 H 0.0 **** 0.41
555 H 2.181683842204166 6.3549930807908925 27.2771666662272 H 0.0 **** 0.41
556 O 46.45472457731672 35.96162963848799 42.7060442939528 O 0.0 **** -0.82
557 H 45.474470635524916 35.77352544620704 42.781449431206234 H 0.0 **** 0.41
558 H 46.47579670175647 36.97916600688779 42.432558024475476 H 0.0 **** 0.41
559 O 15.597690667012905 38.92519139046874 7.761587606559767 O 0.0 **** -0.82
560 H 15.011737229953344 38.43710591764824 7.039048332426677 H 0.0 **** 0.41
561 H 16.233738052007794 38.285142704891754 8.135500334741073 H 0.0 **** 0.41
562 O 34.80115719603118 31.591315283856797 0.5302735474381421 O 0.0 **** -0.82
563 H 35.653702440093994 32.01872580469514 0.8278742430799184 H 0.0 **** 0.41
564 H 34.285477059873635 31.657050707839442 1.3777015573760991 H 0.0 **** 0.41
565 O 35.59197338135634 13.259009918867287 47.01153634343771 O 0.0 **** -0.82
566 H 35.73086851350357 14.21844688322716 46.73284791248013 H 0.0 **** 0.41
567 H 34.67074921506622 13.331178819724904 47.350823671871304 H 0.0 **** 0.41
568 O 4.260060908840309 14.782467589030873 22.014098195587437 O 0.0 **** -0.82
569 H 4.509705063053943 14.80184500777193 21.019292020632918 H 0.0 **** 0.41
570 H 5.000228814592596 14.252796105766947 22.496104184219227 H 0.0 **** 0.41
571 O 31.26639902774939 43.371045029814205 2.124068217748719 O 0.0 **** -0.82
572 H 31.605066657861457 43.979290835760004 2.8693301735782524 H 0.0 **** 0.41
573 H 30.24588039110375 43.29249834748244 2.2878844157808382 H 0.0 **** 0.41
574 O 15.24873311451013 37.802455397668126 34.11380522679695 O 0.0 **** -0.82
575 H 16.040649187543977 37.272762950448936 34.53790232722615 H 0.0 **** 0.41
576 H 14.89871566178455 38.40088672064371 34.86225770429823 H 0.0 **** 0.41
577 O 6.6655584348917145 24.10703383648 44.63732413290375 O 0.0 **** -0.82
578 H 7.591530043142221 23.684653676878643 44.83837667058655 H 0.0 **** 0.41
579 H 6.0997808471079935 23.631440711981863 45.356085047482416 H 0.0 **** 0.41
580 O 40.431262927511746 9.725929329137124 10.182392488282067 O 0.0 **** -0.82
581 H 39.51971276154919 9.649842841733268 9.722967997746345 H 0.0 **** 0.41
582 H 40.195497497476396 10.150529209629937 11.067387547677596 H 0.0 **** 0.41
583 O 7.452084951882898 47.59012701394469 46.746530689074746 O 0.0 **** -0.82
584 H 6.841638694647451 47.33662068895275 47.52875417442201 H 0.0 **** 0.41
585 H 6.8291917020096 47.46333959460558 45.923446713427225 H 0.0 **** 0.41
586 O 42.8814420067369 37.29371981175295 23.995152302263953 O 0.0 **** -0.82
587 H 43.25748486794459 37.4427190038433 23.038139815981733 H 0.0 **** 0.41
588 H 43.48611410708432 37.870445813742236 24.605969100754397 H 0.0 **** 0.41
589 O 12.061158903012569 35.72922092574391 3.320464748014143 O 0.0 **** -0.82
590 H 11.694486525273454 35.9918943334489 2.411129342095855 H 0.0 **** 0.41
591 H 12.912706988288242 36.30834779127838 3.4428146533446866 H 0.0 **** 0.41
592 O 13.919539336982133 43.30047185526678 28.236915268629996 O 0.0 **** -0.82
593 H 13.098874332681296 43.22128540817914 28.858214174034867 H 0.0 **** 0.41
594 H 13.765027077588487 42.43759895376166 27.67697514229485 H 0.0 **** 0.41
595 O 2.498952659392648 35.033032194385875 43.99322178744888 O 0.0 **** -0.82
596 H 2.1354107254118544 34.17069761031839 43.70087661255723 H 0.0 **** 0.41
597 H 3.3122341818812564 35.25568113233106 43.439289410858414 H 0.0 **** 0.41
598 O 49.66569021177645 7.391579477459764 5.702745928794869 O 0.0 **** -0.82
599 H 50.15534505558453 6.533977897814928 5.616387207633053 H 0.0 **** 0.41
600 H 49.27321399705923 7.5418442302381195 4.770880210876562 H 0.0 **** 0.41
601 O 12.247814775435451 17.42452934937802 43.99608664889644 O 0.0 **** -0.82
602 H 11.669783429107504 17.908885120573345 43.36859777006249 H 0.0 **** 0.41
603 H 12.872708163952211 18.040902590350527 44.45059289675058 H 0.0 **** 0.41
604 O 11.905581661708636 17.642595421493652 19.901891350064158 O 0.0 **** -0.82
605 H 11.786788157327495 16.681142947393937 20.22354864255604 H 0.0 **** 0.41
606 H 12.061290475830969 18.279363753157785 20.693965398493614 H 0.0 **** 0.41
607 O 46.56556081387267 45.523070633720046 8.094937057958075 O 0.0 **** -0.82
608 H 46.70650706201641 45.94415586710124 9.069972980311675 H 0.0 **** 0.41
609 H 45.63132463855266 45.725888221964 7.707144914230408 H 0.0 **** 0.41
610 O 28.109639371266525 30.76269650789496 16.118813964877692 O 0.0 **** -0.82
611 H 28.235890505969103 30.383457072019382 17.056319352983998 H 0.0 **** 0.41
612 H 27.175118202339103 31.050979073596867 15.959318726652816 H 0.0 **** 0.41
613 O 44.61324126467073 3.287563132986174 23.481648568350522 O 0.0 **** -0.82
614 H 44.88993905601692 2.54774244330736 22.871161644881035 H 0.0 **** 0.41
615 H 45.495563012140494 3.733513555714329 23.798906511877473 H 0.0 **** 0.41
616 O 15.36065257653786 45.65015712608549 13.645318032689161 O 0.0 **** -0.82
617 H 14.782473349667846 45.987903923782476 14.46101079670198 H 0.0 **** 0.41
618 H 16.241487102054258 46.180702596768725 13.68868363551944 H 0.0 **** 0.41
619 O 36.6592258302719 21.732316917481484 12.856405679399067 O 0.0 **** -0.82
620 H 36.64425382376172 20.765790420248862 13.222740887426532 H 0.0 **** 0.41
621 H 36.50664389886049 22.396301956326297 13.628425948871111 H 0.0 **** 0.41
622 O 36.102668143807726 28.939798335639832 5.622931821875372 O 0.0 **** -0.82
623 H 36.8751845808459 28.347418530306474 5.410643145249768 H 0.0 **** 0.41
624 H 36.049785869053416 29.688275930569517 4.956188672242697 H 0.0 **** 0.41
625 O 10.490763911720302 32.785325148016454 6.593202996949966 O 0.0 **** -0.82
626 H 9.59776878673558 32.32721569826577 6.313521903733172 H 0.0 **** 0.41
627 H 11.196001191100706 32.01734026703031 6.633939377358642 H 0.0 **** 0.41
628 O 17.036877858181132 30.40130012002007 37.83810972433973 O 0.0 **** -0.82
629 H 16.388409192392395 31.208986758024576 38.02271285692108 H 0.0 **** 0.41
630 H 18.0168279297056 30.700618747801133 37.789834518541184 H 0.0 **** 0.41
631 O 3.2030677161774292 33.97581738995127 34.88166340099039 O 0.0 **** -0.82
632 H 2.777567948679379 33.464146766252384 35.621639548782326 H 0.0 **** 0.41
633 H 2.4792814258432654 34.68698436123572 34.760156021702315 H 0.0 **** 0.41
634 O 21.420024082041984 8.874565981395094 6.810152027989503 O 0.0 **** -0.82
635 H 21.03911462123667 9.783669879817865 6.64792759387083 H 0.0 **** 0.41
636 H 21.66137148823965 8.655376522598978 5.87988151195225 H 0.0 **** 0.41
637 O 30.569110960086466 28.936487012036583 10.145472161993183 O 0.0 **** -0.82
638 H 29.653464426773088 28.819731182056024 9.692987295479915 H 0.0 **** 0.41
639 H 30.633035180973074 29.997920228012347 10.161307950138244 H 0.0 **** 0.41
640 O 24.65023554257988 29.469662397289937 3.1697369306836904 O 0.0 **** -0.82
641 H 25.552494757481682 29.716737720800978 3.5739084972498603 H 0.0 **** 0.41
642 H 24.435731281009325 30.012274943285362 2.2766313931748314 H 0.0 **** 0.41
643 O 47.534914960010944 21.48081988257626 35.6592533313285 O 0.0 **** -0.82
644 H 47.85117775396719 21.293391064292997 34.74318706842337 H 0.0 **** 0.41
645 H 46.62083720422265 21.793906564498595 35.29906920518707 H 0.0 **** 0.41
646 O 47.92735010043699 36.730571913190104 26.11161804143596 O 0.0 **** -0.82
647 H 48.03644480201696 37.74557827022598 26.08046153253569 H 0.0 **** 0.41
648 H 47.458250796831464 36.51292275131813 25.242375987038542 H 0.0 **** 0.41
649 O 45.573316224844426 1.8565404618205577 13.598450798473557 O 0.0 **** -0.82
650 H 44.798010379071705 1.4350377434262924 13.116534227364582 H 0.0 **** 0.41
651 H 45.81144456627249 2.6542956035251635 13.015764904066472 H 0.0 **** 0.41
652 O 37.89825488050019 49.838876194810815 16.389866273709274 O 0.0 **** -0.82
653 H 37.372580839965934 50.66081089865221 16.646414680088 H 0.0 **** 0.41
654 H 38.31331468232119 49.53191296056055 17.24590756505142 H 0.0 **** 0.41
655 O 37.20246290709928 26.3129930414677 39.81898789754659 O 0.0 **** -0.82
656 H 36.670319567430646 25.706573089333993 39.16372823404216 H 0.0 **** 0.41
657 H 38.14349583187216 26.29526758223286 39.42424006245248 H 0.0 **** 0.41
658 O 30.378983127281355 17.194104301826314 19.06839198114704 O 0.0 **** -0.82
659 H 30.63493436798578 17.450122415472265 18.10507291386506 H 0.0 **** 0.41
660 H 29.88382486829656 17.98625658575999 19.440861806565575 H 0.0 **** 0.41
661 O 27.365138451187732 8.070062160638479 14.548360052213189 O 0.0 **** -0.82
662 H 27.52812897585429 7.447906112706235 15.356613130407682 H 0.0 **** 0.41
663 H 26.375043453835556 8.147649152148574 14.313003665756382 H 0.0 **** 0.41
664 O 29.50491450883278 18.597018348949106 37.88834826330471 O 0.0 **** -0.82
665 H 30.106134310872083 17.864768868342054 37.722451159441434 H 0.0 **** 0.41
666 H 29.336060603411656 19.19608798194274 37.086967477050756 H 0.0 **** 0.41
667 O 18.464440097162438 6.208650434427824 16.841803902881168 O 0.0 **** -0.82
668 H 18.587094972850274 6.760462883210479 17.62524854615836 H 0.0 **** 0.41
669 H 19.20759051634015 6.581496525901073 16.242371966792994 H 0.0 **** 0.41
670 O 35.93537957999252 49.87679616019635 33.24415837868624 O 0.0 **** -0.82
671 H 36.2099037607711 50.804428199711985 32.836295459275384 H 0.0 **** 0.41
672 H 35.170988154975475 49.721339336179966 32.62381590998684 H 0.0 **** 0.41
673 O 44.75900626859084 27.683562230448786 49.292456248565436 O 0.0 **** -0.82
674 H 44.08926117209349 27.752706255338648 48.514864587082634 H 0.0 **** 0.41
675 H 44.750400272004825 28.63229616980258 49.74412044443405 H 0.0 **** 0.41
676 O 12.667067333690314 13.668470937946076 33.885784811904514 O 0.0 **** -0.82
677 H 12.340474362543873 13.628883198248701 32.96908349005306 H 0.0 **** 0.41
678 H 13.643828907843906 13.700304003807343 33.71266932666277 H 0.0 **** 0.41
679 O 34.59090523866543 42.30115434608285 19.004946225064927 O 0.0 **** -0.82
680 H 34.753860675653875 42.13941515059274 19.987499047295625 H 0.0 **** 0.41
681 H 35.0378596816489 43.18077359486541 18.797372974683597 H 0.0 **** 0.41
682 O 32.892490678674626 3.3311078552389333 19.165278404980732 O 0.0 **** -0.82
683 H 33.35826552303077 4.161592704759087 19.553917648242145 H 0.0 **** 0.41
684 H 32.19044012835941 3.67588320202308 18.52802258070556 H 0.0 **** 0.41
685 O 18.58684024642924 4.034191099183964 28.741765404995643 O 0.0 **** -0.82
686 H 19.25028226155975 4.681816829654508 29.186852590105037 H 0.0 **** 0.41
687 H 18.142248779376708 4.483480650138297 27.972758794294037 H 0.0 **** 0.41
688 O 20.533132907064413 14.606644273039848 19.85815828328043 O 0.0 **** -0.82
689 H 20.9457150248992 15.497329839766813 19.709686753767414 H 0.0 **** 0.41
690 H 20.019458284820686 14.516319708158278 18.986785388019797 H 0.0 **** 0.41
691 O 23.300427521610672 34.214776543518894 49.93581400447784 O 0.0 **** -0.82
692 H 22.729799342167755 33.34586495024472 49.83381785172005 H 0.0 **** 0.41
693 H 23.500086020741378 34.35303703942661 50.98017751654884 H 0.0 **** 0.41
694 O 24.676024092948232 36.806452023570046 31.407381170537256 O 0.0 **** -0.82
695 H 23.97753351005596 36.0887125214045 31.648702076093365 H 0.0 **** 0.41
696 H 24.474813802254584 37.38197132311839 30.56820818369019 H 0.0 **** 0.41
697 O 27.924527951690987 40.88905748598394 14.858709190995825 O 0.0 **** -0.82
698 H 27.958741095445937 41.47192729844443 14.026754857893678 H 0.0 **** 0.41
699 H 27.987383911740956 41.55080265539866 15.62971317156152 H 0.0 **** 0.41
700 O 6.273081507083674 18.20155511488578 44.86314565580921 O 0.0 **** -0.82
701 H 6.564655717481418 18.90056928733959 45.52230901311977 H 0.0 **** 0.41
702 H 6.85673440946092 17.3382181414381 44.988003800359984 H 0.0 **** 0.41
703 O 24.483066678019384 41.10340714089682 13.200626558153644 O 0.0 **** -0.82
704 H 23.531216405506754 40.70827920753424 12.99567888852215 H 0.0 **** 0.41
705 H 24.44870605747562 41.52193532032288 14.093334110964904 H 0.0 **** 0.41
706 O 38.61256641049836 28.60200847072787 27.228305333155177 O 0.0 **** -0.82
707 H 37.734172578834496 28.129141599720867 27.582951340102483 H 0.0 **** 0.41
708 H 38.33531122246059 29.300666858964146 26.56970756221789 H 0.0 **** 0.41
709 O 19.937294001018103 48.3012424266222 15.14237716821981 O 0.0 **** -0.82
710 H 20.743648409498537 47.92026449548753 15.60856489649126 H 0.0 **** 0.41
711 H 20.250693077964208 48.84121014391773 14.29744924027618 H 0.0 **** 0.41
712 O 14.271977824565047 8.33468374629952 6.890618765444282 O 0.0 **** -0.82
713 H 13.339975526214108 8.627756455111095 7.2025418667107495 H 0.0 **** 0.41
714 H 14.50474506575143 7.547281902474932 7.492346936798553 H 0.0 **** 0.41
715 O 48.48007710178645 20.639492092112615 8.707855899762876 O 0.0 **** -0.82
716 H 48.27645485323557 21.187654364753765 9.568067190545825 H 0.0 **** 0.41
717 H 49.1473275555088 21.218770598657546 8.171468426596071 H 0.0 **** 0.41
718 O 49.15175863050357 26.283796921332467 29.640356390964786 O 0.0 **** -0.82
719 H 48.774121546997335 26.81440676442662 28.812342592701 H 0.0 **** 0.41
720 H 50.1346742409036 26.10438660233791 29.4848864267558 H 0.0 **** 0.41
721 O 36.44508310125876 22.475320206575248 17.91843059646476 O 0.0 **** -0.82
722 H 36.714498983343304 23.134943605283183 18.581650514935475 H 0.0 **** 0.41
723 H 35.71632076408609 21.954664991990995 18.38870781484532 H 0.0 **** 0.41
724 O 36.90454322907238 37.058502192091964 12.012078459864718 O 0.0 **** -0.82
725 H 37.25914995955532 37.399342905004126 11.113495363306079 H 0.0 **** 0.41
726 H 36.89550812916208 37.837937233317966 12.626913247968574 H 0.0 **** 0.41
727 O 19.743621793363744 44.052170985628265 30.029955047620362 O 0.0 **** -0.82
728 H 19.871699412459776 44.23240473180934 29.02999044725454 H 0.0 **** 0.41
729 H 20.49741641546652 44.56212007966393 30.471716054367338 H 0.0 **** 0.41
730 O 24.291336599081202 14.82562299706904 11.743348982996746 O 0.0 **** -0.82
731 H 24.225100544094296 13.831165360996614 11.338335114636148 H 0.0 **** 0.41
732 H 25.190740365916913 15.211282935661906 11.458381417713346 H 0.0 **** 0.41
733 O 34.51862149388995 30.24342028728789 17.83751871352797 O 0.0 **** -0.82
734 H 34.09504810092229 29.389265522003132 17.468941173532034 H 0.0 **** 0.41
735 H 34.486062597753936 30.2456038861995 18.889191135964843 H 0.0 **** 0.41
736 O 23.203555392932543 17.9730887777918 25.480241643535987 O 0.0 **** -0.82
737 H 23.078853666306276 18.40390034248092 26.37449917726967 H 0.0 **** 0.41
738 H 22.280977431771237 17.848531642767444 25.074296203855756 H 0.0 **** 0.41
739 O 22.970676314882468 17.57501535294522 22.12751355385492 O 0.0 **** -0.82
740 H 23.941600135107485 17.592544813408075 22.274171526484164 H 0.0 **** 0.41
741 H 22.678480850667935 16.740955329884983 22.593696500975838 H 0.0 **** 0.41
742 O 27.28421649942264 35.814470853321666 23.78127904498665 O 0.0 **** -0.82
743 H 27.458253380599984 36.77288977064526 23.57214789060694 H 0.0 **** 0.41
744 H 26.57779637538883 35.83977770558399 24.50232012068013 H 0.0 **** 0.41
745 O 6.368521985839014 13.757721075038376 6.890878159693254 O 0.0 **** -0.82
746 H 5.613193436801732 13.723442593839195 6.230195302732101 H 0.0 **** 0.41
747 H 6.946453825987444 14.553157490216059 6.609572032618411 H 0.0 **** 0.41
748 O 35.73395727868396 48.431075401142124 36.61825897709236 O 0.0 **** -0.82
749 H 35.30090510213794 48.59573027602719 37.496621611436595 H 0.0 **** 0.41
750 H 35.102562593023876 47.94352082815782 35.99419467717261 H 0.0 **** 0.41
751 O 38.45383348922101 43.76519914919816 21.921811242906536 O 0.0 **** -0.82
752 H 37.949061592554884 44.667582109991464 21.645445037326642 H 0.0 **** 0.41
753 H 39.439786406188894 43.78536516460214 21.60357680948534 H 0.0 **** 0.41
754 O 29.942894174320113 29.15449074741948 45.026272325463566 O 0.0 **** -0.82
755 H 29.65035483844519 28.43136532871251 44.38048538601742 H 0.0 **** 0.41
756 H 30.213215573163847 29.952101373669088 44.48107892616263 H 0.0 **** 0.41
757 O 2.185039720823859 43.72177728004563 49.3728225641317 O 0.0 **** -0.82
758 H 2.675275331906768 42.843540444371605 49.33764933038826 H 0.0 **** 0.41
759 H 2.6055198513794195 44.2944108202343 48.600175565698216 H 0.0 **** 0.41
760 O 42.55279822569372 33.608288715558274 32.926470288590174 O 0.0 **** -0.82
761 H 42.103639965086614 33.61534333653444 33.854195855421494 H 0.0 **** 0.41
762 H 43.44038163593483 33.19329600620219 33.14377186622874 H 0.0 **** 0.41
763 O 15.013131152599785 6.062905021615414 48.630192892075904 O 0.0 **** -0.82
764 H 14.311264506005706 6.177138294770835 49.37725995951075 H 0.0 **** 0.41
765 H 14.773193268327796 5.18482552324209 48.18138603944093 H 0.0 **** 0.41
766 O 17.742442759941266 39.05247795751245 5.682000579173668 O 0.0 **** -0.82
767 H 17.01523906926715 38.63756524707516 6.1347885462698315 H 0.0 **** 0.41
768 H 17.344353582665587 39.18213110329892 4.811666180050736 H 0.0 **** 0.41
769 O 10.793530312440128 17.674685696551673 25.92624897311407 O 0.0 **** -0.82
770 H 11.1152501508594 17.13296330265566 25.123190385775427 H 0.0 **** 0.41
771 H 11.385475336332396 17.456429787823613 26.724831273215674 H 0.0 **** 0.41
772 O 29.587186959036742 47.99344294294281 32.39235952069516 O 0.0 **** -0.82
773 H 29.105898926727214 48.648780288353834 31.783542046375015 H 0.0 **** 0.41
774 H 30.502074424570882 48.00414750246533 32.01080118711163 H 0.0 **** 0.41
775 O 39.4925859258214 22.77763676718509 40.273186961959034 O 0.0 **** -0.82
776 H 39.546509236065006 23.5940081701196 40.79298855077604 H 0.0 **** 0.41
777 H 39.15954108318421 23.176204265989377 39.42528950735023 H 0.0 **** 0.41
778 O 9.693813005785278 41.11577928924169 16.222675716819296 O 0.0 **** -0.82
779 H 9.835822638338461 41.58692496819398 17.12584890779651 H 0.0 **** 0.41
780 H 10.36483526069102 40.42806022842086 16.391755629891577 H 0.0 **** 0.41
781 O 42.39324571201619 19.775238860462093 17.074917032801945 O 0.0 **** -0.82
782 H 42.410617961855785 19.872642908058726 18.08127886638299 H 0.0 **** 0.41
783 H 41.759249059349536 20.540063423122906 16.871923386509014 H 0.0 **** 0.41
784 O 43.61559864877197 13.736986737335947 0.8174285062300853 O 0.0 **** -0.82
785 H 44.09422994439384 14.612237934511063 1.0477669518909563 H 0.0 **** 0.41
786 H 42.789818161808256 13.976542247117333 0.2898207558719184 H 0.0 **** 0.41
787 O 6.461119323258096 38.094646993995426 21.48185346443553 O 0.0 **** -0.82
788 H 6.760194545125891 37.23623808052585 20.98854702433745 H 0.0 **** 0.41
789 H 6.535224002309015 38.6935818444102 20.67413187921814 H 0.0 **** 0.41
790 O 31.5980596259919 16.752308574791055 37.559376236920336 O 0.0 **** -0.82
791 H 32.32989400277515 16.393809674819817 38.15788800725173 H 0.0 **** 0.41
792 H 32.04466814292317 16.852766812825426 36.67306400007064 H 0.0 **** 0.41
793 O 6.364863974000471 12.637148148640476 36.087211265873016 O 0.0 **** -0.82
794 H 6.806015293449342 12.254964753016099 36.943711399354456 H 0.0 **** 0.41
795 H 6.448932246129068 11.801995105364888 35.455584186658506 H 0.0 **** 0.41
796 O 28.249832504033748 37.11500317375407 41.9773193826443 O 0.0 **** -0.82
797 H 27.530270397864154 37.814704074040876 41.824578789410054 H 0.0 **** 0.41
798 H 28.933457680308994 37.63669435096423 42.52101292873525 H 0.0 **** 0.41
799 O 22.47177549231454 46.47317587043897 22.532614945899354 O 0.0 **** -0.82
800 H 23.523860461407665 46.616574544886596 22.58922720639499 H 0.0 **** 0.41
801 H 22.098141355290917 46.8134292743648 23.37505165491013 H 0.0 **** 0.41
802 O 0.009460655150064667 10.094345467031369 40.66943813791336 O 0.0 **** -0.82
803 H -0.5041775211012123 9.341971504538284 40.267808741928064 H 0.0 **** 0.41
804 H 0.8547891675811047 9.693985984040237 40.969085408285245 H 0.0 **** 0.41
805 O 7.3223725630622125 16.698631344502758 39.05080852741887 O 0.0 **** -0.82
806 H 7.575183334230414 17.693494242052136 39.28132100821753 H 0.0 **** 0.41
807 H 6.4201139953943915 16.865721139868857 38.640063993156375 H 0.0 **** 0.41
808 O 4.293724281959266 7.033992713253469 17.42482381307262 O 0.0 **** -0.82
809 H 4.249774472934917 7.018873318695819 18.483662796936834 H 0.0 **** 0.41
810 H 3.5496650425783414 7.588160021874938 17.065010810788678 H 0.0 **** 0.41
811 O 19.70410070870337 21.30590747541629 5.188542699611546 O 0.0 **** -0.82
812 H 18.85155891252698 21.809827624229328 4.938073047761293 H 0.0 **** 0.41
813 H 19.56023023187511 21.14985725571097 6.160077059924454 H 0.0 **** 0.41
814 O 0.590779983139825 14.466797588928381 6.430996335348986 O 0.0 **** -0.82
815 H 0.08515806627870148 14.116703344526027 5.681900279752213 H 0.0 **** 0.41
816 H 1.2963112558919434 13.822084003381512 6.676325581508451 H 0.0 **** 0.41
817 O 14.270561569725075 40.96454834861654 5.847494205572873 O 0.0 **** -0.82
818 H 13.36866063413015 40.473202505370345 5.784431698847332 H 0.0 **** 0.41
819 H 14.86725805464634 40.41980833240573 6.501339234844906 H 0.0 **** 0.41
820 O 9.23317188438552 45.15049822287656 10.563292890126974 O 0.0 **** -0.82
821 H 9.783941049604316 45.46757236656633 11.371186101406536 H 0.0 **** 0.41
822 H 9.469979136399346 45.767884842326886 9.803390752186054 H 0.0 **** 0.41
823 O 20.848199730105858 12.330513878817204 26.6834459922835 O 0.0 **** -0.82
824 H 20.839380594839675 11.822516416105065 27.552047535614307 H 0.0 **** 0.41
825 H 21.837651018021035 12.344687861250891 26.432978145717374 H 0.0 **** 0.41
826 O 39.288142174053725 38.34792389081308 2.2044890139035216 O 0.0 **** -0.82
827 H 39.68116055799504 39.109259357733386 1.615336714433633 H 0.0 **** 0.41
828 H 38.33429131353368 38.59159097048359 2.3926203883400827 H 0.0 **** 0.41
829 O 13.186629523359606 48.35161578452512 29.029864385054047 O 0.0 **** -0.82
830 H 14.076297360920847 48.12753673652668 29.42400608733131 H 0.0 **** 0.41
831 H 12.829556981160643 48.950210880691145 29.795633646420743 H 0.0 **** 0.41
832 O 4.268462065205306 6.53846146302344 27.98668131606941 O 0.0 **** -0.82
833 H 5.229807853498016 6.908356510342365 28.183065041023383 H 0.0 **** 0.41
834 H 3.688809883106998 6.904384315330441 28.732042059742962 H 0.0 **** 0.41
835 O 9.7967341706454 37.218980173671895 44.09064391766914 O 0.0 **** -0.82
836 H 8.860588462835336 36.78126630662699 44.17498525224673 H 0.0 **** 0.41
837 H 10.289888770410135 36.48546900989089 43.659749793389516 H 0.0 **** 0.41
838 O 45.937291686344096 20.70458067896189 38.81101891843183 O 0.0 **** -0.82
839 H 45.48515160219631 21.515340244298823 39.01409751880712 H 0.0 **** 0.41
840 H 45.43297309997692 20.107145116812344 38.14970133530434 H 0.0 **** 0.41
841 O 15.710264097459012 39.45945360235154 39.753748395806426 O 0.0 **** -0.82
842 H 16.180439723321932 39.870374880953804 38.938532194349705 H 0.0 **** 0.41
843 H 16.44114922599511 39.23123624867138 40.409408082745784 H 0.0 **** 0.41
844 O 12.690942369936892 44.981145325902574 5.797552913991209 O 0.0 **** -0.82
845 H 13.44735649645262 44.558117203823066 5.267180823481607 H 0.0 **** 0.41
846 H 11.969868836286572 44.2307677696856 5.814996536572603 H 0.0 **** 0.41
847 O 5.26743322586382 13.432722854718273 9.357638255048213 O 0.0 **** -0.82
848 H 4.404468809455413 13.989863993422974 9.385811709701805 H 0.0 **** 0.41
849 H 5.737921762551728 13.627413063256263 8.497203033478534 H 0.0 **** 0.41
850 O 4.127747463387782 6.565683881316153 12.316526814374065 O 0.0 **** -0.82
851 H 3.747786741071218 6.017062530572357 11.489701702531036 H 0.0 **** 0.41
852 H 5.122686458404296 6.392647269879093 12.346175487515133 H 0.0 **** 0.41
853 O 14.717436612694542 11.21166058353461 42.096726853152234 O 0.0 **** -0.82
854 H 14.57965361502984 11.796937198856641 42.91687368171785 H 0.0 **** 0.41
855 H 13.80746790588428 10.893643106198905 41.8556901816896 H 0.0 **** 0.41
856 O 30.942804027698813 35.56621232568085 24.8360283583665 O 0.0 **** -0.82
857 H 31.789187788874184 35.07680630422584 25.15895144135753 H 0.0 **** 0.41
858 H 31.174995327185226 35.47269588224411 23.823893081917728 H 0.0 **** 0.41
859 O 24.91949896284222 22.920038822810728 28.202128931820845 O 0.0 **** -0.82
860 H 25.38050202999873 22.227827505506163 28.828749837735163 H 0.0 **** 0.41
861 H 24.023901916857245 22.489320189912075 27.813279729315436 H 0.0 **** 0.41
862 O 26.657759777242873 6.716399870162043 36.51442752098832 O 0.0 **** -0.82
863 H 26.284058967457423 6.141248746126642 35.740899595314346 H 0.0 **** 0.41
864 H 25.89317275694942 7.172682362064876 37.022851376620764 H 0.0 **** 0.41
865 O 22.97012366877017 47.428883047345714 47.27042112481356 O 0.0 **** -0.82
866 H 23.091592378987915 46.489551695981575 47.02793341507753 H 0.0 **** 0.41
867 H 23.081873194837684 48.01093137858335 46.44066120918077 H 0.0 **** 0.41
868 O 15.73460503486261 4.582010611431336 10.379930786261184 O 0.0 **** -0.82
869 H 16.34164505940774 4.579683460295385 9.484235549568837 H 0.0 **** 0.41
870 H 15.811723555307822 3.6911647520809723 10.857902562438852 H 0.0 **** 0.41
871 O 13.792980677711135 5.162155540046591 36.26696142466134 O 0.0 **** -0.82
872 H 13.586919581473325 4.17966921918832 36.03617972653643 H 0.0 **** 0.41
873 H 13.182919677718395 5.318500412452671 37.104102398767644 H 0.0 **** 0.41
874 O 26.735022526555852 2.4724612086253686 15.624038214276476 O 0.0 **** -0.82
875 H 26.43745442016843 3.2546198079691067 16.154348866552947 H 0.0 **** 0.41
876 H 27.507237032113714 2.0448547365352496 16.123873169421206 H 0.0 **** 0.41
877 O 3.2911208208714022 41.40875511692119 49.28363378553973 O 0.0 **** -0.82
878 H 2.795130355749168 40.6621968568091 48.756637913110104 H 0.0 **** 0.41
879 H 4.166277059872795 40.958871826471615 49.55650992586064 H 0.0 **** 0.41
880 O 12.596115053167075 27.952828332844106 12.069829705099385 O 0.0 **** -0.82
881 H 11.950079070015954 27.365459839976296 11.546796448981059 H 0.0 **** 0.41
882 H 13.488751945451325 27.47019028755686 11.925519577040724 H 0.0 **** 0.41
883 O 16.082280559594807 14.886164785771967 28.516737162982295 O 0.0 **** -0.82
884 H 16.01959523984273 15.704434449577235 27.94696137156009 H 0.0 **** 0.41
885 H 16.873787622048223 14.27176940865749 28.240356922687027 H 0.0 **** 0.41
886 O 12.150187661779889 49.63955157886121 33.31372745303673 O 0.0 **** -0.82
887 H 13.028233512241963 49.582494496514435 33.782976241859686 H 0.0 **** 0.41
888 H 11.63215777939482 50.33364449747929 33.90903507101014 H 0.0 **** 0.41
889 O 32.91280369420852 37.75491383287316 33.71506716727788 O 0.0 **** -0.82
890 H 32.348488501380075 37.35447765632475 32.95263818814052 H 0.0 **** 0.41
891 H 33.47528989596229 37.01420796422145 34.176574921228294 H 0.0 **** 0.41
892 O 28.025006782082137 6.00662682064582 16.445383967692237 O 0.0 **** -0.82
893 H 28.40206910198908 5.474974291803079 17.221917382352245 H 0.0 **** 0.41
894 H 27.067437153206132 5.741236756998767 16.57565876616124 H 0.0 **** 0.41
895 O 14.799651239014338 9.363372477363235 15.43327140696021 O 0.0 **** -0.82
896 H 14.47246389117474 8.401560998760363 15.347668966539661 H 0.0 **** 0.41
897 H 14.182717924248223 9.863811347454721 14.831823360927137 H 0.0 **** 0.41
898 O 12.10499894409707 23.75767238935245 39.38904090536297 O 0.0 **** -0.82
899 H 13.043362006304363 23.83294516141595 39.682687800380045 H 0.0 **** 0.41
900 H 12.21271828970054 23.138571650137848 38.62679518551238 H 0.0 **** 0.41
901 O 13.395795071298629 44.61802341262876 25.26833373705264 O 0.0 **** -0.82
902 H 14.244153895969136 44.22587639583918 24.78048164180777 H 0.0 **** 0.41
903 H 13.49952490618937 44.056122046886216 26.093822538103495 H 0.0 **** 0.41
904 O 16.94639158026139 35.59595740531373 5.675457812497243 O 0.0 **** -0.82
905 H 16.704502798795772 35.9420741166056 6.58763853227255 H 0.0 **** 0.41
906 H 17.906903002987008 35.492724690392286 5.939565070061427 H 0.0 **** 0.41
907 O 21.825390844887693 16.016879501098927 12.027237261526636 O 0.0 **** -0.82
908 H 22.63487478509674 15.451935250743468 12.016768242126489 H 0.0 **** 0.41
909 H 21.08349623321196 15.510249854019392 11.542336138727396 H 0.0 **** 0.41
910 O 15.835475315061146 7.60519291705191 40.190147899693585 O 0.0 **** -0.82
911 H 15.998968582835284 7.395856482577109 41.149610344699894 H 0.0 **** 0.41
912 H 16.299572124793297 8.444714126353896 39.94649563109489 H 0.0 **** 0.41
913 O 37.724677665395006 27.614838022899193 48.51044412336097 O 0.0 **** -0.82
914 H 38.39026781203362 27.138371050012086 47.92683834892843 H 0.0 **** 0.41
915 H 37.307147997474964 28.35925741605516 47.91304789357664 H 0.0 **** 0.41
916 O 41.276733566300635 35.792297280408086 37.14468633509738 O 0.0 **** -0.82
917 H 40.82597033119845 35.26087092163638 37.88916896906283 H 0.0 **** 0.41
918 H 41.75328574663988 35.15429430890017 36.50316081480979 H 0.0 **** 0.41
919 O 25.098972695304475 30.565285497961106 13.485593634196146 O 0.0 **** -0.82
920 H 24.306872613912347 31.248693111957078 13.302679644097525 H 0.0 **** 0.41
921 H 25.27113479907481 30.711273012325407 14.468949077610207 H 0.0 **** 0.41
922 O 17.455479670078542 43.442741431295595 6.1051311916986695 O 0.0 **** -0.82
923 H 17.618336161376533 44.381452685231686 6.514820375415737 H 0.0 **** 0.41
924 H 17.416651305357075 42.721898170400955 6.8897218727970415 H 0.0 **** 0.41
925 O 44.60988238065255 34.79785142389909 19.57604999767498 O 0.0 **** -0.82
926 H 44.02635749558614 34.00498401302619 19.23049367062622 H 0.0 **** 0.41
927 H 44.611624822986315 35.52063317904491 18.895467233585684 H 0.0 **** 0.41
928 O 32.61210555708521 10.277953757593947 21.333350434184617 O 0.0 **** -0.82
929 H 31.765777836034708 10.251045959389499 20.729161700804074 H 0.0 **** 0.41
930 H 33.33396981273465 10.648700300292969 20.75949964459148 H 0.0 **** 0.41
931 O 5.533536043944572 21.904227806025304 8.115746694155249 O 0.0 **** -0.82
932 H 5.468837012394992 22.10448570305678 7.112454824148124 H 0.0 **** 0.41
933 H 5.947086282249209 20.985911356934096 8.03969615053807 H 0.0 **** 0.41
934 O 47.59985391138662 1.5842106726354217 46.063263477772345 O 0.0 **** -0.82
935 H 47.39215186139104 1.1073047483559932 46.879162583266314 H 0.0 **** 0.41
936 H 48.17063727107106 2.3289353547780394 46.46671084273541 H 0.0 **** 0.41
937 O 47.03371184948619 12.521834455926609 12.5775669250266 O 0.0 **** -0.82
938 H 47.29233701408815 12.778638198768974 13.55249090189721 H 0.0 **** 0.41
939 H 47.67570605827374 13.046464573866437 11.959467753048322 H 0.0 **** 0.41
940 O 29.49940345680627 1.6301498321730534 15.912225783734797 O 0.0 **** -0.82
941 H 30.043992062053103 0.7915855636754543 16.050788320950943 H 0.0 **** 0.41
942 H 29.32381057779126 1.7737175851588418 14.883663470737929 H 0.0 **** 0.41
943 O 15.10563622738082 37.787485406566205 20.888346159343534 O 0.0 **** -0.82
944 H 14.815486934589469 36.800109880609845 21.130046396831993 H 0.0 **** 0.41
945 H 15.819039122276049 38.0322880012206 21.605072461370334 H 0.0 **** 0.41
946 O 11.593688860962718 8.897708929993243 7.51471024489706 O 0.0 **** -0.82
947 H 11.01678399641971 9.002882782948632 8.341488817243246 H 0.0 **** 0.41
948 H 11.436966024115815 9.850121029891824 7.072715665526438 H 0.0 **** 0.41
949 O 1.984527139790781 2.6731319649877965 19.934612955787475 O 0.0 **** -0.82
950 H 1.9915698836675146 2.3684461100009453 18.929298365292283 H 0.0 **** 0.41
951 H 2.032263022975753 3.710729980327459 19.930068772394776 H 0.0 **** 0.41
952 O 27.763636762230785 49.47920871705844 14.698782834160554 O 0.0 **** -0.82
953 H 27.05744428111711 49.95192502411706 14.1429846694747 H 0.0 **** 0.41
954 H 28.667931791117336 49.45798550788432 14.258930052083869 H 0.0 **** 0.41
955 O 10.551557306537312 18.271655103282452 37.88785663230129 O 0.0 **** -0.82
956 H 9.705943276336136 18.743997583243043 37.549319548501494 H 0.0 **** 0.41
957 H 10.209111398598026 17.797050919764867 38.744541627742194 H 0.0 **** 0.41
958 O 18.959117283167615 42.1707212466681 24.321931292205235 O 0.0 **** -0.82
959 H 18.686285695460953 43.09259858204034 24.155725652778674 H 0.0 **** 0.41
960 H 18.306892715343665 41.86227903740059 25.038689062274916 H 0.0 **** 0.41
961 O 2.636808137977418 12.802284060415364 42.41643089248307 O 0.0 **** -0.82
962 H 3.190925858965371 12.011931354247858 42.01242747030056 H 0.0 **** 0.41
963 H 2.8587837598802652 13.646138129038528 41.93265538262106 H 0.0 **** 0.41
964 O 24.117713460712665 41.51882535272033 35.903436069311546 O 0.0 **** -0.82
965 H 24.172847970709388 40.777897126701156 36.57581104815628 H 0.0 **** 0.41
966 H 24.691838697632182 41.30030736995925 35.08380253836583 H 0.0 **** 0.41
967 O 11.800780442831803 3.3406355841409696 48.89723597484874 O 0.0 **** -0.82
968 H 12.557642204632108 3.359388303546959 48.256924485174444 H 0.0 **** 0.41
969 H 10.98493184917961 3.495119171698479 48.28283320353534 H 0.0 **** 0.41
970 O 16.031071648039756 0.49777059579480465 45.68617060821403 O 0.0 **** -0.82
971 H 16.034934729199705 1.0190730674195763 46.559472111099886 H 0.0 **** 0.41
972 H 15.974172395811209 1.2863966560621805 45.02237753276398 H 0.0 **** 0.41
973 O 29.208853569615467 17.541301219142493 30.12570772909934 O 0.0 **** -0.82
974 H 30.07273990223019 17.187211697301425 30.51109269973302 H 0.0 **** 0.41
975 H 29.096732147980106 17.270278045695278 29.1554682814463 H 0.0 **** 0.41
976 O 8.040411943178043 24.518490848087907 2.5203842331730564 O 0.0 **** -0.82
977 H 8.254100614049726 25.488047929913506 2.3391645746795278 H 0.0 **** 0.41
978 H 8.63543840579861 24.037532573795986 1.8485469730079183 H 0.0 **** 0.41
979 O 4.748013349846815 17.72512737065579 29.997828570516514 O 0.0 **** -0.82
980 H 5.79285752204926 17.85195786795388 30.087784206111024 H 0.0 **** 0.41
981 H 4.458324633236465 18.671816844039967 29.81203283496637 H 0.0 **** 0.41
982 O 26.60144715082845 30.975931182405755 11.006709409824536 O 0.0 **** -0.82
983 H 25.756148149734884 30.63916795778149 11.569007560193963 H 0.0 **** 0.41
984 H 27.303090135696735 31.291376187620916 11.691787421317812 H 0.0 **** 0.41
985 O 14.134827236104126 49.09431117227546 38.97841828825126 O 0.0 **** -0.82
986 H 13.616302690201529 48.702304040979726 38.164416101911954 H 0.0 **** 0.41
987 H 14.51975474933491 48.32506442900433 39.473555377731316 H 0.0 **** 0.41
988 O 40.79415050251413 1.4240505803355745 24.65567525749671 O 0.0 **** -0.82
989 H 40.57197821287471 1.5367495911897464 23.718275821027277 H 0.0 **** 0.41
990 H 39.96516357912544 1.8549895003662442 25.099363046256443 H 0.0 **** 0.41
991 O 16.901444285696467 8.064490970451049 8.083694747143987 O 0.0 **** -0.82
992 H 17.202584515235174 7.768722957294297 9.065987174058066 H 0.0 **** 0.41
993 H 17.174413143702623 7.271549895097885 7.513656230622502 H 0.0 **** 0.41
994 O 10.935013736912154 41.25016473399652 11.53632685185232 O 0.0 **** -0.82
995 H 10.049921763770968 41.71714640511157 11.33409559916364 H 0.0 **** 0.41
996 H 11.707686189054655 41.90636996687909 11.53541035252195 H 0.0 **** 0.41
997 O 48.92645070689625 34.78274663341784 20.174598518567283 O 0.0 **** -0.82
998 H 49.38705239076716 34.73946848852968 21.049198555166168 H 0.0 **** 0.41
999 H 48.127695310750944 34.14588579837965 20.187104884128686 H 0.0 **** 0.41
1000 O 40.704976969131344 18.49660262508614 9.002715228482145 O 0.0 **** -0.82
1001 H 39.9192169192342 17.894268218277787 8.798422172792968 H 0.0 **** 0.41
1002 H 40.573010576275514 18.60614047947459 9.986479261078479 H 0.0 **** 0.41
1003 O 28.211247603818997 0.5173100316631363 36.00942949029961 O 0.0 **** -0.82
1004 H 27.54172519933908 0.07788636440202623 35.320901898988694 H 0.0 **** 0.41
1005 H 29.09302986820271 -0.03864206976911788 35.95863784557617 H 0.0 **** 0.41
1006 O 38.11266436051713 8.57364317021903 30.0177008946719 O 0.0 **** -0.82
1007 H 38.149789121767625 9.218071639672752 29.252791589552572 H 0.0 **** 0.41
1008 H 38.40462761538643 9.123457666721748 30.850206185038555 H 0.0 **** 0.41
1009 O 33.30211845492507 27.117495920506585 37.766014193248175 O 0.0 **** -0.82
1010 H 32.76901845578997 27.940605059611855 37.40089352316653 H 0.0 **** 0.41
1011 H 33.016705340861854 26.413677447306497 37.09566344653702 H 0.0 **** 0.41
1012 O 6.3169449126792845 43.76814805748982 4.339360139913175 O 0.0 **** -0.82
1013 H 6.601499601585509 44.74018031077107 4.119377736700486 H 0.0 **** 0.41
1014 H 5.358785803118884 43.81004264633377 4.62654489919435 H 0.0 **** 0.41
1015 O 42.294281304283345 1.8206914200476227 45.74392376827944 O 0.0 **** -0.82
1016 H 42.3217470437304 1.5541219535088244 44.822233899291135 H 0.0 **** 0.41
1017 H 43.2358298138107 1.7163502933933827 46.049587034044315 H 0.0 **** 0.41
1018 O 12.4503419346633 43.41146840941216 9.365423968276364 O 0.0 **** -0.82
1019 H 13.36090430669772 42.93558923757879 9.338760036676822 H 0.0 **** 0.41
1020 H 12.668864402449216 44.356535039557286 9.06681981587781 H 0.0 **** 0.41
1021 O 1.4447300416714697 21.63165589659873 24.12629352831064 O 0.0 **** -0.82
1022 H 1.2962645838315154 21.36318980036056 23.196649777833027 H 0.0 **** 0.41
1023 H 1.496129218278078 22.6616624569511 24.18656059969778 H 0.0 **** 0.41
1024 O 38.962307289945564 7.245506403904775 0.9705921592549487 O 0.0 **** -0.82
1025 H 39.63536305184419 7.995265879045038 1.0269008066951315 H 0.0 **** 0.41
1026 H 39.480120753879206 6.504053629513996 0.6333636754515837 H 0.0 **** 0.41
1027 O 11.191977340039545 36.81430975714699 38.97805856042615 O 0.0 **** -0.82
1028 H 11.300373434790668 36.27839103073407 39.834224401999954 H 0.0 **** 0.41
1029 H 11.741015936447896 37.697930469843726 39.074921831393866 H 0.0 **** 0.41
1030 O 15.096039704570131 46.962612179335764 4.058308892264918 O 0.0 **** -0.82
1031 H 14.19783900299552 47.34220850456014 3.91544829788608 H 0.0 **** 0.41
1032 H 15.401472106931262 46.605242742349056 3.208275041667264 H 0.0 **** 0.41
1033 O 30.475669615656873 47.596277173866845 2.5963353961734326 O 0.0 **** -0.82
1034 H 31.44439463780119 47.33665352061705 2.7082506565055096 H 0.0 **** 0.41
1035 H 30.46728818528391 48.45587903725188 2.088277800242863 H 0.0 **** 0.41
1036 O 49.9960597540219 47.07566612383184 46.827296833401455 O 0.0 **** -0.82
1037 H 50.32833588637552 46.11251865938197 46.671432020132016 H 0.0 **** 0.41
1038 H 48.975374241344255 47.03194848492809 46.78702706992209 H 0.0 **** 0.41
1039 O 39.36931135217309 48.89997656328112 13.165813049021857 O 0.0 **** -0.82
1040 H 39.3336222497413 49.94353901878043 13.255301483433271 H 0.0 **** 0.41
1041 H 40.330442971023274 48.669172194880474 13.351575279016231 H 0.0 **** 0.41
1042 O 49.18317576152576 0.05387590899194805 14.889062299199203 O 0.0 **** -0.82
1043 H 49.85589354050563 -0.5956865892680199 14.423298147379619 H 0.0 **** 0.41
1044 H 49.51990387726234 1.045234285062115 14.855393792044142 H 0.0 **** 0.41
1045 O 31.321848731040035 12.826253033459793 25.398695874715038 O 0.0 **** -0.82
1046 H 31.991497832364075 12.503838514124643 26.02353137632732 H 0.0 **** 0.41
1047 H 30.369592477792878 12.616712252377726 25.723449975005256 H 0.0 **** 0.41
1048 O 49.00565752064592 22.6888964949681 42.69177880878805 O 0.0 **** -0.82
1049 H 48.12718478198416 23.20344034779647 42.493412134350564 H 0.0 **** 0.41
1050 H 49.49604296014001 22.468295093134934 41.79349713856392 H 0.0 **** 0.41
1051 O 43.34977685075376 10.895261113383446 9.513224655872964 O 0.0 **** -0.82
1052 H 44.09144347260736 10.52164662460463 10.12034155590875 H 0.0 **** 0.41
1053 H 42.69158081916136 10.186569096363131 9.59747998890207 H 0.0 **** 0.41
1054 O 17.668229565603568 30.907381232872215 9.756991323263092 O 0.0 **** -0.82
1055 H 17.93706450686566 30.02426321636598 10.142627414696733 H 0.0 **** 0.41
1056 H 18.48621824449155 31.5390273401709 9.721117356825577 H 0.0 **** 0.41
1057 O 40.26204432067079 23.751320311700788 46.61359671956537 O 0.0 **** -0.82
1058 H 40.281471118181166 23.08908978660668 47.392927872067226 H 0.0 **** 0.41
1059 H 39.928732255938236 23.14118833804111 45.89831248881405 H 0.0 **** 0.41
1060 O 48.63856127935261 14.773540495225745 37.45631568227741 O 0.0 **** -0.82
1061 H 49.635773121215635 14.530955479268556 37.29124299856927 H 0.0 **** 0.41
1062 H 48.11147688184258 13.976375826490319 37.04607158567611 H 0.0 **** 0.41
1063 O 40.93076097257765 6.678437578381043 3.7455833290543006 O 0.0 **** -0.82
1064 H 41.80330022592402 6.984082941699377 3.320571841213975 H 0.0 **** 0.41
1065 H 41.29998289713008 5.846340799646853 4.201023734547087 H 0.0 **** 0.41
1066 O 14.027428671212647 33.26054174250453 48.91667246109474 O 0.0 **** -0.82
1067 H 14.491981288539279 33.7479151387994 49.665416517524896 H 0.0 **** 0.41
1068 H 14.768003402033955 32.72717419677603 48.585941841880626 H 0.0 **** 0.41
1069 O 33.715824265157536 27.63161192795481 12.32494981167636 O 0.0 **** -0.82
1070 H 34.38673491540662 27.18587213055468 12.937364112301873 H 0.0 **** 0.41
1071 H 32.807879288174945 27.24452731090196 12.599689629935126 H 0.0 **** 0.41
1072 O 38.99176777127274 6.553011610637571 11.087210996584204 O 0.0 **** -0.82
1073 H 38.72823351946348 7.374638134551861 10.510777200332903 H 0.0 **** 0.41
1074 H 39.630158127499264 6.806336838656557 11.765238074543582 H 0.0 **** 0.41
1075 O 24.9072753038117 49.899745059435354 16.5034565559491 O 0.0 **** -0.82
1076 H 25.80330020559891 50.19258119191962 16.80544716879001 H 0.0 **** 0.41
1077 H 24.928919797655496 49.643659706038235 15.511025812008768 H 0.0 **** 0.41
1078 O 34.20336445962654 8.709793625513734 44.73081624149915 O 0.0 **** -0.82
1079 H 34.775206335470806 9.450563772690613 44.356136679396684 H 0.0 **** 0.41
1080 H 33.553029311862204 8.436712157191424 44.02368359854866 H 0.0 **** 0.41
1081 O 34.98284620620229 46.70139608299528 22.94322814290136 O 0.0 **** -0.82
1082 H 35.82196822191239 46.76375220996045 23.493843224729023 H 0.0 **** 0.41
1083 H 34.4065505420949 45.94572966509526 23.387989660009435 H 0.0 **** 0.41
1084 O 27.1534044525432 45.565578725783624 32.40083278681336 O 0.0 **** -0.82
1085 H 26.500244728601515 46.068637713033205 32.98990954770088 H 0.0 **** 0.41
1086 H 26.814100260920146 44.624506950981484 32.1937251806848 H 0.0 **** 0.41
1087 O 27.554863309134685 25.129693723759296 8.513040441104083 O 0.0 **** -0.82
1088 H 26.85244963882115 25.186620818965995 7.764238943919937 H 0.0 **** 0.41
1089 H 28.303889488504208 25.656788710070867 8.089620874142561 H 0.0 **** 0.41
1090 O 47.4419316429196 47.214755554656435 36.80328526188051 O 0.0 **** -0.82
1091 H 46.86110607439194 46.37592141739354 36.876791302309236 H 0.0 **** 0.41
1092 H 47.07577590737134 47.75917798561448 37.536936986821416 H 0.0 **** 0.41
1093 O 9.168513567992976 11.065527272472167 36.07759406708263 O 0.0 **** -0.82
1094 H 9.765766601769055 10.341390681367841 35.64672394724543 H 0.0 **** 0.41
1095 H 9.702452073589523 11.539913980333118 36.800457516478055 H 0.0 **** 0.41
1096 O 47.01331495253964 12.789020092951008 1.1293574485399742 O 0.0 **** -0.82
1097 H 46.95369256484446 13.203075164236632 2.0258710697834585 H 0.0 **** 0.41
1098 H 47.55076028371571 13.480666749676057 0.617415328765835 H 0.0 **** 0.41
1099 O 41.77135537736439 47.91145138058161 4.938518693628949 O 0.0 **** -0.82
1100 H 41.60659820458642 48.91947994637744 4.805358873945834 H 0.0 **** 0.41
1101 H 42.53591059322258 47.60517718560996 4.341805718777993 H 0.0 **** 0.41
1102 O 24.280858869871906 15.520181723273723 26.030206615038924 O 0.0 **** -0.82
1103 H 23.815095457537126 15.268196807313217 26.848680599692806 H 0.0 **** 0.41
1104 H 23.932647478330694 16.452083953183163 25.84336974920416 H 0.0 **** 0.41
1105 O 46.24768301895372 34.12108042437032 15.827898932920434 O 0.0 **** -0.82
1106 H 46.616786562702345 34.62271579773909 15.070220903605707 H 0.0 **** 0.41
1107 H 47.09551085221965 33.82969221681006 16.31316009142536 H 0.0 **** 0.41
1108 O 1.140693784518021 49.972704419827316 11.571891174030661 O 0.0 **** -0.82
1109 H 1.1328234037888407 49.58401454210069 12.52661491989818 H 0.0 **** 0.41
1110 H 0.9835042397473117 49.06611917889584 11.131059053204801 H 0.0 **** 0.41
1111 O 24.448342606249064 18.476866707772942 0.45192122085800435 O 0.0 **** -0.82
1112 H 24.07423965843094 17.550556926585784 0.532386136435754 H 0.0 **** 0.41
1113 H 23.652395876559773 19.06360916249686 0.153812284975821 H 0.0 **** 0.41
1114 O 16.697831025334537 4.359029324192889 20.330173081873568 O 0.0 **** -0.82
1115 H 16.316749102583202 4.2580339222063515 21.26264519512621 H 0.0 **** 0.41
1116 H 17.488138474486817 5.022167697948248 20.469616119581758 H 0.0 **** 0.41
1117 O 44.129627580859676 3.5942775953851296 11.104217774159645 O 0.0 **** -0.82
1118 H 44.457330787166995 2.7362475448399124 10.769875685676647 H 0.0 **** 0.41
1119 H 44.605449846842816 4.405642206651294 10.664292230776391 H 0.0 **** 0.41
1120 O 28.70346149252259 46.02368812212742 25.518521447355983 O 0.0 **** -0.82
1121 H 28.561398798046515 46.12974253461813 24.523378228183557 H 0.0 **** 0.41
1122 H 29.593834506383814 45.60964224004038 25.664489098357677 H 0.0 **** 0.41
1123 O 39.47183008589731 0.8769737101732105 20.117864630391367 O 0.0 **** -0.82
1124 H 40.053483269278075 1.102689341155859 19.303400524162527 H 0.0 **** 0.41
1125 H 40.053770462772576 1.3964051439554197 20.832882349914314 H 0.0 **** 0.41
1126 O 21.162462813098983 3.077187955813315 32.98180171553352 O 0.0 **** -0.82
1127 H 20.303431895680603 3.473212952704145 32.49547089774181 H 0.0 **** 0.41
1128 H 21.522029258614765 2.3144467762319536 32.439382718497896 H 0.0 **** 0.41
1129 O 5.848811159403167 0.38093943265957586 5.46918278249334 O 0.0 **** -0.82
1130 H 5.96510713839423 0.9737663781146593 4.600768419983477 H 0.0 **** 0.41
1131 H 6.575371177510111 -0.360120059704947 5.46439532508954 H 0.0 **** 0.41
1132 O 30.654659122067613 10.863296766187768 19.569610220763764 O 0.0 **** -0.82
1133 H 31.0681816625792 10.55181939843128 18.655517789493587 H 0.0 **** 0.41
1134 H 31.18851018662321 11.668474330275261 19.709252181326946 H 0.0 **** 0.41
1135 O 46.775081411480436 0.0892312779403776 48.11651157253628 O 0.0 **** -0.82
1136 H 46.55175117013862 0.06581135018394946 49.09535648994083 H 0.0 **** 0.41
1137 H 47.781185129312476 -0.14453350182316171 48.01357387826618 H 0.0 **** 0.41
1138 O 12.193223356564005 47.05010952327779 33.44491798090494 O 0.0 **** -0.82
1139 H 11.333340718414732 46.86409768558387 33.98126792049221 H 0.0 **** 0.41
1140 H 12.094460008101656 48.09259151547945 33.3753622202585 H 0.0 **** 0.41
1141 O 35.19141347107932 22.146126991443488 40.31200218512389 O 0.0 **** -0.82
1142 H 34.35775523348485 21.649223213054608 40.78720199751761 H 0.0 **** 0.41
1143 H 34.849011544723005 22.249032829865016 39.36128644427902 H 0.0 **** 0.41
1144 O 22.45485429081286 9.419162926255197 2.0781833146450213 O 0.0 **** -0.82
1145 H 21.97153408707156 8.564037108600898 2.4593277149587203 H 0.0 **** 0.41
1146 H 21.64893551975817 10.135246333924895 1.9871354674624229 H 0.0 **** 0.41
1147 O 29.227634043014163 44.578373402223235 34.296884082915625 O 0.0 **** -0.82
1148 H 28.632690327904452 44.136973088940564 34.94780990218305 H 0.0 **** 0.41
1149 H 28.5363509655683 45.10771390799013 33.73766392423154 H 0.0 **** 0.41
1150 O 17.31949139793738 33.26681570624088 48.90274753163123 O 0.0 **** -0.82
1151 H 17.63795726198481 34.205260019546756 48.94951290633903 H 0.0 **** 0.41
1152 H 17.813829802567614 32.989922472987935 48.045576447869465 H 0.0 **** 0.41
1153 O 47.424644451984655 5.407173616011618 38.985331614657234 O 0.0 **** -0.82
1154 H 47.66688895379332 5.955544170448319 39.87372649502907 H 0.0 **** 0.41
1155 H 48.39306241239585 5.276536236414585 38.52503567424937 H 0.0 **** 0.41
1156 O 30.0049406510579 23.52954270007184 20.453935826892277 O 0.0 **** -0.82
1157 H 29.61800823556852 23.006818881256294 19.67129732946264 H 0.0 **** 0.41
1158 H 29.13595489938753 23.776564387604346 20.96313666833629 H 0.0 **** 0.41
1159 O 49.46453283795207 36.872126965920884 10.504240047765924 O 0.0 **** -0.82
1160 H 50.156033194005985 37.03125749675414 9.809388334662478 H 0.0 **** 0.41
1161 H 49.83983749543216 37.52894541698763 11.165525460795294 H 0.0 **** 0.41
1162 O 26.377381013050908 44.95318044793243 13.601768715989337 O 0.0 **** -0.82
1163 H 26.22552655090479 44.18923299802822 12.9317607651667 H 0.0 **** 0.41
1164 H 26.246543969955482 44.46163279957183 14.483509342092262 H 0.0 **** 0.41
1165 O 18.776536665623283 37.41608985032423 11.680937259205557 O 0.0 **** -0.82
1166 H 18.0445483962372 38.00073414905556 11.284855404063912 H 0.0 **** 0.41
1167 H 18.21299252954321 36.7151544920936 12.123107600784863 H 0.0 **** 0.41
1168 O 37.1261615561284 9.951230038768479 37.65670461955234 O 0.0 **** -0.82
1169 H 36.348708430222494 9.50129518488609 38.1275183096151 H 0.0 **** 0.41
1170 H 36.68421970360001 10.268857576363544 36.7982904413204 H 0.0 **** 0.41
1171 O 35.11448447950043 39.402911020721234 49.991742419292265 O 0.0 **** -0.82
1172 H 34.43295376722121 39.29998935650515 49.25129764074248 H 0.0 **** 0.41
1173 H 35.89881683085679 38.78510777090074 49.7716272460892 H 0.0 **** 0.41
1174 O 49.51694683714901 45.1688681591101 31.56827820425234 O 0.0 **** -0.82
1175 H 48.67983356480717 44.92479180465525 32.06704265580006 H 0.0 **** 0.41
1176 H 49.54021282954728 46.12951260462695 31.177345425484805 H 0.0 **** 0.41
1177 O 12.31465905084815 5.3702266319759895 38.40223917783845 O 0.0 **** -0.82
1178 H 12.85375010937392 5.213791006712095 39.2415657176675 H 0.0 **** 0.41
1179 H 11.59973548120226 4.58671748192281 38.485241360000046 H 0.0 **** 0.41
1180 O 35.44196757964961 37.20477122111026 47.01354769220809 O 0.0 **** -0.82
1181 H 35.25320875923665 36.40826791039297 47.617634723455254 H 0.0 **** 0.41
1182 H 36.40669218616838 37.121349447441965 46.80049915334308 H 0.0 **** 0.41
1183 O 13.464643287434313 32.719434693000714 32.15134219660175 O 0.0 **** -0.82
1184 H 12.955426323479138 33.57235460195821 31.961353859850885 H 0.0 **** 0.41
1185 H 13.549865654282314 32.363134075334756 31.178565376142455 H 0.0 **** 0.41
1186 O 33.83438615425161 39.57835176286593 20.704834879617287 O 0.0 **** -0.82
1187 H 34.163517348976285 40.43684785258456 21.007287215917923 H 0.0 **** 0.41
1188 H 33.03492308981698 39.843270131244545 20.117175849842948 H 0.0 **** 0.41
1189 O 36.26989104846922 2.4929967229293624 44.90151503458644 O 0.0 **** -0.82
1190 H 35.849846818140435 2.4980442735986657 45.87676782023862 H 0.0 **** 0.41
1191 H 37.20484782945257 2.900919475621869 45.130056809067405 H 0.0 **** 0.41
1192 O 13.820537828237308 43.65639180649547 16.197455916240422 O 0.0 **** -0.82
1193 H 13.248423468517155 42.82291489164929 16.48773824937228 H 0.0 **** 0.41
1194 H 13.146602756964837 44.41605171267662 16.218611732071174 H 0.0 **** 0.41
1195 O 47.47240343444825 29.86337642000818 40.39928685337178 O 0.0 **** -0.82
1196 H 47.86510704364304 28.919101579486128 40.659954076851 H 0.0 **** 0.41
1197 H 47.98338381026353 30.543086255422683 40.93169968447179 H 0.0 **** 0.41
1198 O 1.627509737044221 44.555149238467145 11.683749431485259 O 0.0 **** -0.82
1199 H 2.5382506378456355 44.32749359586001 12.054604345652281 H 0.0 **** 0.41
1200 H 1.7831370045019241 44.450612720565225 10.659711426250333 H 0.0 **** 0.41
1201 O 12.547289043930915 21.50707635965126 3.0159404944630173 O 0.0 **** -0.82
1202 H 11.55002670461538 21.271794826571906 3.066310325307504 H 0.0 **** 0.41
1203 H 12.954662591623347 20.571842420644924 3.1128706847431618 H 0.0 **** 0.41
1204 O 20.102194251439013 45.738734942079304 46.93257250540099 O 0.0 **** -0.82
1205 H 19.71975818673286 46.0046663177043 45.95985560860662 H 0.0 **** 0.41
1206 H 20.957082939587192 45.279407180394685 46.663246590042434 H 0.0 **** 0.41
1207 O 24.944346995215984 48.831833125020815 29.526916841492824 O 0.0 **** -0.82
1208 H 25.033090912560013 47.97687016340092 28.97039800075583 H 0.0 **** 0.41
1209 H 24.654736733454545 49.618941277996846 28.930644752428886 H 0.0 **** 0.41
1210 O 42.50257272829296 40.753813485342135 3.381358919952533 O 0.0 **** -0.82
1211 H 42.874542890686 40.110852136298895 2.6621702496020476 H 0.0 **** 0.41
1212 H 43.084030035436825 40.5534541507885 4.242579689647698 H 0.0 **** 0.41
1213 O 24.146224151635476 2.0342927355447498 2.9015083743724936 O 0.0 **** -0.82
1214 H 23.332463529695485 1.496436423093842 2.7350595189737255 H 0.0 **** 0.41
1215 H 23.96751686752294 2.813553662532283 3.442509819085903 H 0.0 **** 0.41
1216 O 27.348053872222376 31.495408513292148 27.30884658380801 O 0.0 **** -0.82
1217 H 27.959473058310444 31.99908889547408 26.619862713842117 H 0.0 **** 0.41
1218 H 26.528698434969428 31.38018392179676 26.76960932076284 H 0.0 **** 0.41
1219 O 31.362777217421794 16.780306201331364 31.249439155491025 O 0.0 **** -0.82
1220 H 32.09813561928938 16.094465049261515 31.33289742535651 H 0.0 **** 0.41
1221 H 31.146449637729376 17.119815157593393 32.20560124031283 H 0.0 **** 0.41
1222 O 31.759222141337293 13.596007760120589 19.96413825627772 O 0.0 **** -0.82
1223 H 32.242666272270725 14.475230867701198 19.961835757913722 H 0.0 **** 0.41
1224 H 31.467900098967192 13.467454991993305 20.913571675308393 H 0.0 **** 0.41
1225 O 12.115671953285112 43.546499559521116 45.23115393066058 O 0.0 **** -0.82
1226 H 11.384884790154812 44.23958948905518 45.318370579400515 H 0.0 **** 0.41
1227 H 11.865422720061286 42.858592545790444 44.54703709959142 H 0.0 **** 0.41
1228 O 23.237534187144263 35.80586998545032 16.115240628507536 O 0.0 **** -0.82
1229 H 23.494450160621312 36.54832750991265 15.50326739062993 H 0.0 **** 0.41
1230 H 23.336877707524124 36.342305537251605 16.94945727343668 H 0.0 **** 0.41
1231 O 19.367416217281285 29.28302369039139 18.29090998843177 O 0.0 **** -0.82
1232 H 18.843040999113107 29.626201630611632 19.06664792423987 H 0.0 **** 0.41
1233 H 20.012649874830863 28.500586709149914 18.508282879027295 H 0.0 **** 0.41
1234 O 8.404906199543028 45.46372237144954 37.33786152418588 O 0.0 **** -0.82
1235 H 8.802226584819126 44.78324203504072 36.76007480863973 H 0.0 **** 0.41
1236 H 7.517229727010839 45.700903574621364 36.83951551772975 H 0.0 **** 0.41
1237 O 30.548508004066445 15.610012951695936 40.83798367582572 O 0.0 **** -0.82
1238 H 31.479706499577716 15.321195993505597 40.95371188476921 H 0.0 **** 0.41
1239 H 29.995084095192553 14.868786380011045 41.23183914207116 H 0.0 **** 0.41
1240 O 18.73720249415544 47.27037675834101 25.340844731627115 O 0.0 **** -0.82
1241 H 18.557124781987895 48.286850858292944 25.197022648980663 H 0.0 **** 0.41
1242 H 18.30720551436545 47.06107245067778 26.206239253983625 H 0.0 **** 0.41
1243 O 6.074949569586086 46.07211269354352 36.0702836779788 O 0.0 **** -0.82
1244 H 6.075410566192403 46.026110410501346 35.07544981632648 H 0.0 **** 0.41
1245 H 5.328895981168569 45.53152422224328 36.49311064382646 H 0.0 **** 0.41
1246 O 44.94568256343773 38.416724442309 2.3888152508590608 O 0.0 **** -0.82
1247 H 45.882609808167146 38.07270791076595 2.199027098752424 H 0.0 **** 0.41
1248 H 44.49796950293328 38.630298233031674 1.4961775546753913 H 0.0 **** 0.41
1249 O 18.969920148746294 31.977643045899303 20.88698933584877 O 0.0 **** -0.82
1250 H 19.34756223080852 32.4369048086013 21.689985897984645 H 0.0 **** 0.41
1251 H 18.017147775404297 31.707237421068605 21.17211616383573 H 0.0 **** 0.41
1252 O 7.83113606517038 48.47567229386608 43.01459673069496 O 0.0 **** -0.82
1253 H 7.309355731452402 47.84072599889075 43.63779573793244 H 0.0 **** 0.41
1254 H 7.201424263550592 48.54503560817791 42.187867328413105 H 0.0 **** 0.41
1255 O 14.764630218558466 0.9203007631757012 17.362923205495974 O 0.0 **** -0.82
1256 H 15.52430423291105 1.4250082048010368 17.847390204902407 H 0.0 **** 0.41
1257 H 15.286744744827274 0.034003594472077535 17.01175095238209 H 0.0 **** 0.41
1258 O 22.783300613838115 0.8351354440404377 10.905068445538758 O 0.0 **** -0.82
1259 H 23.203944887802407 0.08012444901962504 10.35365973551749 H 0.0 **** 0.41
1260 H 23.47390826403009 1.5831071717607441 10.91094371436536 H 0.0 **** 0.41
1261 O 7.999008101185161 25.201403165996656 48.10975451514094 O 0.0 **** -0.82
1262 H 8.713876181253667 25.768278183685485 48.47741071818428 H 0.0 **** 0.41
1263 H 7.736658769781414 25.53458475004463 47.17971812959851 H 0.0 **** 0.41
1264 O 2.666013229710579 2.3531013777700807 15.136905415721762 O 0.0 **** -0.82
1265 H 3.1792779341976143 3.145278700878528 15.467694474719428 H 0.0 **** 0.41
1266 H 3.3032533636743793 2.106401319039662 14.343842104581109 H 0.0 **** 0.41
1267 O 17.624534435787318 47.893157290731516 30.273137651458086 O 0.0 **** -0.82
1268 H 18.310018367636708 47.509774964893786 30.912079550282954 H 0.0 **** 0.41
1269 H 17.9027296425634 48.84623015427096 30.210325220365448 H 0.0 **** 0.41
1270 O 35.24169540008015 24.583980154034297 28.842707675554152 O 0.0 **** -0.82
1271 H 34.48904749244398 24.265203166404326 29.392884121986384 H 0.0 **** 0.41
1272 H 34.90295362961695 24.864425531427454 27.901508148427226 H 0.0 **** 0.41
1273 O 2.14842861735346 32.45768178533633 4.4105102312054605 O 0.0 **** -0.82
1274 H 1.56524073533609 32.770392221862636 3.651688463744776 H 0.0 **** 0.41
1275 H 2.0574231273275316 32.91727454570575 5.348097540145618 H 0.0 **** 0.41
1276 O 24.965106316870994 31.972358289619 21.30660530817893 O 0.0 **** -0.82
1277 H 24.728663385140848 32.89894316980061 20.95241753048917 H 0.0 **** 0.41
1278 H 24.84924124450194 31.342627157266 20.482318427223234 H 0.0 **** 0.41
1279 O 29.070399430613744 22.645886930315857 35.73915575297168 O 0.0 **** -0.82
1280 H 29.500428128776807 23.38456951728686 36.331433803338705 H 0.0 **** 0.41
1281 H 29.044317554736306 22.926713481244484 34.764194134750504 H 0.0 **** 0.41
1282 O 4.160831610732984 43.99358405582127 12.354532640464747 O 0.0 **** -0.82
1283 H 5.053813792417522 44.47328481617103 12.356025674611537 H 0.0 **** 0.41
1284 H 4.143950140287977 43.477657371355605 11.432446401148503 H 0.0 **** 0.41
1285 O 43.56481085287733 8.759408908518267 13.365160245030737 O 0.0 **** -0.82
1286 H 43.21962194296422 9.742292570088177 13.543887282543825 H 0.0 **** 0.41
1287 H 42.68511938624776 8.283929229217122 13.076961357768925 H 0.0 **** 0.41
1288 O 34.59545946764739 32.498433596994175 22.28487197470378 O 0.0 **** -0.82
1289 H 34.69478909232463 32.3789565889872 23.36069473992524 H 0.0 **** 0.41
1290 H 35.16109094641991 33.29591004240081 22.252786707898085 H 0.0 **** 0.41
1291 O 6.475932245653663 13.198226403851091 23.118400367451844 O 0.0 **** -0.82
1292 H 6.637614689584184 12.695822566204003 22.221509767515553 H 0.0 **** 0.41
1293 H 6.391127067927254 12.533133715714591 23.831450814902322 H 0.0 **** 0.41
1294 O 30.792999562910236 36.14632648739382 20.339329752122858 O 0.0 **** -0.82
1295 H 30.782465265777585 36.62266203090337 19.414438072297912 H 0.0 **** 0.41
1296 H 29.935333668135254 36.50339950976367 20.775715912193313 H 0.0 **** 0.41
1297 O 44.70467069164219 12.239383702216877 40.3852298403888 O 0.0 **** -0.82
1298 H 45.586182406838155 12.460895613502768 39.94396867660969 H 0.0 **** 0.41
1299 H 44.29871849645432 13.11768582481088 40.68984115368832 H 0.0 **** 0.41
1300 O 32.11125431526257 42.42295517616197 10.967267571185438 O 0.0 **** -0.82
1301 H 31.984676549235044 43.20404709451382 10.294007133183541 H 0.0 **** 0.41
1302 H 31.585513809970056 41.67211149411406 10.540790274978363 H 0.0 **** 0.41
1303 O 14.832401936918146 36.5877886353556 39.4164316912389 O 0.0 **** -0.82
1304 H 14.911134570098639 37.59960976862468 39.54728094985798 H 0.0 **** 0.41
1305 H 14.978432804364672 36.18577413378286 40.34732898228645 H 0.0 **** 0.41
1306 O 40.42229973957432 33.38794377044048 0.7726525946902673 O 0.0 **** -0.82
1307 H 39.915025363868374 33.604165277897835 1.619988469079452 H 0.0 **** 0.41
1308 H 40.27245719206024 33.98048617230644 -0.03797762502058788 H 0.0 **** 0.41
1309 O 45.6488847929369 18.098880764378038 27.731175405438407 O 0.0 **** -0.82
1310 H 46.65979659197814 17.761862843715704 27.63107999745138 H 0.0 **** 0.41
1311 H 45.32113637404824 18.017258658788364 26.75086263856651 H 0.0 **** 0.41
1312 O 14.494712676746104 11.591558192760644 32.46875000930658 O 0.0 **** -0.82
1313 H 13.583261449168937 11.459264812860198 32.19416608433929 H 0.0 **** 0.41
1314 H 14.549563138614332 11.139138482511896 33.37113986019298 H 0.0 **** 0.41
1315 O 30.5453302698059 3.557211653810924 48.82828712748083 O 0.0 **** -0.82
1316 H 29.933170524845657 4.393157775961214 48.67094946571415 H 0.0 **** 0.41
1317 H 31.102165479320245 3.7230626088095136 47.98730370469814 H 0.0 **** 0.41
1318 O 15.253276633830083 20.256845183925535 47.522237164429725 O 0.0 **** -0.82
1319 H 15.362814775274146 21.28852405951158 47.40357967595153 H 0.0 **** 0.41
1320 H 14.942578104469092 20.243114480743188 48.51745402237326 H 0.0 **** 0.41
1321 O 48.259367397708324 39.37278277176352 11.662995943611458 O 0.0 **** -0.82
1322 H 48.654675655214675 39.71360185138664 12.538640656855613 H 0.0 **** 0.41
1323 H 47.49684158160689 38.809785616395885 11.998447057720682 H 0.0 **** 0.41
1324 O 13.9701343032595 12.502562131465478 22.301646480809733 O 0.0 **** -0.82
1325 H 13.855747456491038 13.472316420082578 22.76852661428103 H 0.0 **** 0.41
1326 H 13.329817885985229 12.460500957308344 21.5438825189508 H 0.0 **** 0.41
1327 O 35.7306503552481 9.12544000997407 5.020310683057023 O 0.0 **** -0.82
1328 H 35.41175514441183 9.530648384534544 5.949169034276385 H 0.0 **** 0.41
1329 H 36.432801503901295 8.387424149903609 5.111072131829332 H 0.0 **** 0.41
1330 O 7.370822319851165 3.3918084489742926 31.58003021646922 O 0.0 **** -0.82
1331 H 7.317753368649079 2.3804275601188594 31.680661812314526 H 0.0 **** 0.41
1332 H 6.440539786413671 3.7726756985934067 31.34208748358801 H 0.0 **** 0.41
1333 O 26.748304495738097 11.589358309087922 34.64608026738874 O 0.0 **** -0.82
1334 H 25.800832012798054 11.315395974245618 34.89018777132354 H 0.0 **** 0.41
1335 H 27.34384263798876 10.971377843014507 35.13081508941623 H 0.0 **** 0.41
1336 O 23.913102125928233 19.292772183785637 44.82411409924718 O 0.0 **** -0.82
1337 H 23.431609718155954 19.09336810328153 43.964386562915344 H 0.0 **** 0.41
1338 H 24.266897467877335 20.25872093766157 44.78769167338387 H 0.0 **** 0.41
1339 O 27.618644282224643 47.06697393808137 35.97242846974623 O 0.0 **** -0.82
1340 H 27.11867148198361 47.52947512941545 35.18767034634286 H 0.0 **** 0.41
1341 H 28.63050731758814 47.29764968983761 35.87743544868014 H 0.0 **** 0.41
1342 O 21.682808178910502 35.469579974685004 10.81331686993012 O 0.0 **** -0.82
1343 H 22.276750539229138 34.72565037297001 10.366989067034424 H 0.0 **** 0.41
1344 H 22.32497704387228 35.93944461659845 11.487129945637136 H 0.0 **** 0.41
1345 O 30.710734531325215 23.03913891740143 46.042127578249364 O 0.0 **** -0.82
1346 H 30.626843684128016 23.48249184925406 46.915711774651726 H 0.0 **** 0.41
1347 H 31.179501854203505 23.733960022023922 45.5496048269181 H 0.0 **** 0.41
1348 O 41.82122526400701 48.56733882913096 15.913802840527552 O 0.0 **** -0.82
1349 H 41.930984980409946 48.18163481379099 14.99848238093706 H 0.0 **** 0.41
1350 H 42.41828571611083 48.00710723087768 16.498931412857836 H 0.0 **** 0.41
1351 O 24.97177912721432 3.6250477852263217 28.435529036926226 O 0.0 **** -0.82
1352 H 24.33909590661031 4.238528250149059 27.905181863460044 H 0.0 **** 0.41
1353 H 24.98024119438753 4.070605428588415 29.369312411495272 H 0.0 **** 0.41
1354 O 37.47490325446319 35.0394724397407 44.774295655869516 O 0.0 **** -0.82
1355 H 37.458090430796304 34.73951873522033 45.76476826565081 H 0.0 **** 0.41
1356 H 37.11719785016514 34.23773742676492 44.28049201030283 H 0.0 **** 0.41
1357 O 35.63144047945123 10.368329129281332 15.228259482456963 O 0.0 **** -0.82
1358 H 34.870441422726984 9.729555653125018 15.376031584932727 H 0.0 **** 0.41
1359 H 35.315787127515144 11.267914297061502 15.37916302912975 H 0.0 **** 0.41
1360 O 13.391998878219141 30.24972794322545 26.429510234617712 O 0.0 **** -0.82
1361 H 13.886453245792758 29.6955966870826 26.979006772846542 H 0.0 **** 0.41
1362 H 12.760973988777508 29.657250709471853 25.877992842042712 H 0.0 **** 0.41
1363 O 27.495314247140236 8.175437144219408 24.724240187176076 O 0.0 **** -0.82
1364 H 26.577913720001348 8.501641081576025 24.52997160274133 H 0.0 **** 0.41
1365 H 27.50028779411159 7.34471326604033 24.124015257716184 H 0.0 **** 0.41
1366 O 7.990698896390363 46.827318590224614 31.470344413923996 O 0.0 **** -0.82
1367 H 8.824615436879053 47.03451320667504 31.966906360512912 H 0.0 **** 0.41
1368 H 8.155290614384349 47.04778420213219 30.510394931910707 H 0.0 **** 0.41
1369 O 36.56324773355122 30.318105327354637 38.00877059289856 O 0.0 **** -0.82
1370 H 37.128757750713945 29.881755405710376 37.345256939221336 H 0.0 **** 0.41
1371 H 36.01675147527074 29.71006770238704 38.61680898904836 H 0.0 **** 0.41
1372 O 32.522013901210755 23.38050902524007 21.335915756281754 O 0.0 **** -0.82
1373 H 32.633103849524446 22.400435234636827 21.638611539235747 H 0.0 **** 0.41
1374 H 31.524144946925276 23.475688210104533 21.121815270881356 H 0.0 **** 0.41
1375 O 44.837412343017334 16.603669021025624 29.69607553253497 O 0.0 **** -0.82
1376 H 44.84299950782644 15.612379130616313 29.36692949495892 H 0.0 **** 0.41
1377 H 45.34856888271952 17.02040602013209 28.960873287061453 H 0.0 **** 0.41
1378 O 11.086771264856752 9.965104942601416 3.483091559444347 O 0.0 **** -0.82
1379 H 11.059085843017874 9.18067525280665 4.118062302581357 H 0.0 **** 0.41
1380 H 11.808093847556137 10.56138865815317 3.906169153479972 H 0.0 **** 0.41
1381 O 19.71485483164763 19.809847647664864 38.28277260792946 O 0.0 **** -0.82
1382 H 18.958698472318638 19.17100790803496 38.27426171270986 H 0.0 **** 0.41
1383 H 19.60586942323311 20.258159831542258 37.39602749095257 H 0.0 **** 0.41
1384 O 10.458225697960302 39.857722031676644 27.938392551514738 O 0.0 **** -0.82
1385 H 10.981997355381836 38.9927291655797 28.15038233204012 H 0.0 **** 0.41
1386 H 9.830867363704897 39.75978180083947 27.09833308475615 H 0.0 **** 0.41
1387 O 10.354220802642713 15.326641307951292 24.2451807919241 O 0.0 **** -0.82
1388 H 9.386041386122889 15.136646645822736 24.051339268915527 H 0.0 **** 0.41
1389 H 10.743837024224888 15.618270012274536 23.301444800689964 H 0.0 **** 0.41
1390 O 36.61320030676899 37.050328566538354 43.295555387690534 O 0.0 **** -0.82
1391 H 36.97994867126309 36.23684437575783 43.81095155231297 H 0.0 **** 0.41
1392 H 36.768985586734956 36.6670935989977 42.33892473306908 H 0.0 **** 0.41
1393 O 21.37875755224559 48.0814453735654 27.72645661813877 O 0.0 **** -0.82
1394 H 22.16480137055039 47.47857305152762 27.832318843184773 H 0.0 **** 0.41
1395 H 21.693068148067354 48.84649164395458 27.05927734455385 H 0.0 **** 0.41
1396 O 13.24290353992307 5.222719188314748 40.99979516984386 O 0.0 **** -0.82
1397 H 12.977033456799074 5.4950875130802075 41.93881885568303 H 0.0 **** 0.41
1398 H 14.137603717634233 4.686135657439436 41.047582035191745 H 0.0 **** 0.41
1399 O 18.04566429660162 16.23428869608717 45.247031597749356 O 0.0 **** -0.82
1400 H 17.81698125720413 16.901404702861296 46.02500024126354 H 0.0 **** 0.41
1401 H 17.56548425497079 15.304467140630253 45.42651449099879 H 0.0 **** 0.41
1402 O 47.44200528791191 37.11711196603827 22.263994163185476 O 0.0 **** -0.82
1403 H 46.87375860550669 36.85104768123467 23.0759895164274 H 0.0 **** 0.41
1404 H 47.73686049646547 36.301002964751234 21.705774502997674 H 0.0 **** 0.41
1405 O 0.2547759039287669 29.971178801219423 48.324103229846784 O 0.0 **** -0.82
1406 H 0.6931136785306435 30.347497786343382 47.46901337935755 H 0.0 **** 0.41
1407 H -0.3947403758310699 30.717144672911026 48.657879677273094 H 0.0 **** 0.41
1408 O 2.9871342896238455 22.392805070502025 28.091060280477706 O 0.0 **** -0.82
1409 H 2.859651079688042 21.543162865114624 27.57911792111953 H 0.0 **** 0.41
1410 H 3.080381705911054 22.114737119047536 29.11850866857496 H 0.0 **** 0.41
1411 O 45.126391289156025 2.773461191498619 41.61706000351807 O 0.0 **** -0.82
1412 H 45.17623928852011 1.894993550917782 41.121945385718256 H 0.0 **** 0.41
1413 H 44.32614724598169 3.271425364371801 41.348134898623336 H 0.0 **** 0.41
1414 O 12.494372125082219 23.27201705239065 10.612114573158903 O 0.0 **** -0.82
1415 H 13.184888241892185 23.364837445581173 9.939508927557803 H 0.0 **** 0.41
1416 H 12.133819410682761 24.25079728520049 10.700549397990596 H 0.0 **** 0.41
1417 O 0.3911908654409473 7.63842667803295 13.996308890456877 O 0.0 **** -0.82
1418 H 1.061334362345697 8.423296121977998 14.125833845519214 H 0.0 **** 0.41
1419 H -0.4270275917967723 7.7381342403348725 14.518269123032745 H 0.0 **** 0.41
1420 O 42.95271109182196 33.147561090307974 12.174976984986586 O 0.0 **** -0.82
1421 H 42.22300403856606 32.506012661298335 12.513190919489887 H 0.0 **** 0.41
1422 H 42.509545515685524 33.844018985680165 11.617497544534842 H 0.0 **** 0.41
1423 O 26.729564934795036 14.071565186647277 1.2060383832784252 O 0.0 **** -0.82
1424 H 26.510759525348746 14.64961574317401 0.40678206910754666 H 0.0 **** 0.41
1425 H 27.267157033981547 13.31707533883862 0.7348979196747367 H 0.0 **** 0.41
1426 O 34.037358542771 14.869326838992492 13.325145214360285 O 0.0 **** -0.82
1427 H 33.67599961598651 14.514701601339956 14.150763506533073 H 0.0 **** 0.41
1428 H 33.686004058105226 14.151558349144155 12.75081746944186 H 0.0 **** 0.41
1429 O 30.697671849784044 7.9718213304522045 9.44863949020656 O 0.0 **** -0.82
1430 H 31.27545859889484 8.492376137378688 10.043728860232825 H 0.0 **** 0.41
1431 H 29.848150045527614 8.537221956507818 9.46796317975381 H 0.0 **** 0.41
1432 O 5.641008659743974 43.43062481187893 47.03388120890583 O 0.0 **** -0.82
1433 H 5.437259362721804 42.83876038725476 46.21585219584591 H 0.0 **** 0.41
1434 H 4.906000516596492 44.13292577577283 47.11587939179647 H 0.0 **** 0.41
1435 O 21.232279467438687 21.231221135038897 24.95128586440093 O 0.0 **** -0.82
1436 H 20.472201838088324 21.56246578039021 24.35899590465681 H 0.0 **** 0.41
1437 H 21.17479850846985 20.197742387839675 24.80786953925552 H 0.0 **** 0.41
1438 O 1.4739478071517524 24.70783796635877 28.332730357491215 O 0.0 **** -0.82
1439 H 1.747217817814736 23.76684952128409 28.183290682054242 H 0.0 **** 0.41
1440 H 2.268825608238032 25.169333256113834 28.74345214373444 H 0.0 **** 0.41
1441 O 30.55910038836751 16.859574966281482 43.09454460393736 O 0.0 **** -0.82
1442 H 29.675539678302304 17.348689476146937 43.0677734436268 H 0.0 **** 0.41
1443 H 30.832359977128984 16.694609034725033 42.12272456333276 H 0.0 **** 0.41
1444 O 9.208298667299502 43.57947457143776 35.63194785707729 O 0.0 **** -0.82
1445 H 8.767192930838263 43.30949183349779 34.66412010010886 H 0.0 **** 0.41
1446 H 9.193493425447159 42.70174315537515 36.145784579760985 H 0.0 **** 0.41
1447 O 29.821961653476155 20.02959746677446 42.615464628743226 O 0.0 **** -0.82
1448 H 29.448265002644384 19.191633384232873 42.19696613933116 H 0.0 **** 0.41
1449 H 29.74559600378061 19.872469784226347 43.621195773402384 H 0.0 **** 0.41
1450 O 30.271992530633757 26.577252321943902 48.27693602409976 O 0.0 **** -0.82
1451 H 29.480831097696868 25.968711293381915 47.97663103344293 H 0.0 **** 0.41
1452 H 31.13789613943823 26.316275939655302 47.820918481497415 H 0.0 **** 0.41
1453 O 45.47455340109546 32.67169071670369 48.278646161076956 O 0.0 **** -0.82
1454 H 45.920246995262154 31.883508457399667 48.67178673600998 H 0.0 **** 0.41
1455 H 45.19108352554804 32.26663746859992 47.3706904588202 H 0.0 **** 0.41
1456 O 5.62714120609418 10.116288495232098 19.294952723555603 O 0.0 **** -0.82
1457 H 5.014797783674595 9.360692991706202 19.584145532375544 H 0.0 **** 0.41
1458 H 5.0117796623045905 10.484269180459455 18.594379004349406 H 0.0 **** 0.41
1459 O 1.1733508915766453 45.340825628834736 41.23831520895933 O 0.0 **** -0.82
1460 H 1.0681348441139056 45.99245044977055 42.040258380378674 H 0.0 **** 0.41
1461 H 0.7696627668779938 45.77203019009469 40.449411995195206 H 0.0 **** 0.41
1462 O 35.929787929108926 38.358212710820624 29.098117052961943 O 0.0 **** -0.82
1463 H 35.61683929681637 37.805404370667645 29.92519788448726 H 0.0 **** 0.41
1464 H 35.10966097268805 38.36875611583646 28.475828027781183 H 0.0 **** 0.41
1465 O 34.52388440092948 13.485557584590039 3.879048011261169 O 0.0 **** -0.82
1466 H 34.930141729333464 13.837273479265296 2.9792029840875927 H 0.0 **** 0.41
1467 H 35.16007694347491 12.734363838768457 4.174510341191741 H 0.0 **** 0.41
1468 O 32.28360039676721 10.517945176724982 33.80602727002128 O 0.0 **** -0.82
1469 H 32.83531113601243 11.306275413073193 33.42959060083666 H 0.0 **** 0.41
1470 H 31.688298520381114 10.17861904144117 33.075842357046234 H 0.0 **** 0.41
1471 O 0.3369952392331115 8.303228379000787 8.031807872960734 O 0.0 **** -0.82
1472 H 0.20024559040669487 7.524914014856398 8.603736517052454 H 0.0 **** 0.41
1473 H -0.08003950042050434 8.057004952894497 7.094124216767533 H 0.0 **** 0.41
1474 O 34.21349916967742 19.25573138151145 11.525498096493235 O 0.0 **** -0.82
1475 H 33.61982562817416 19.968441326840423 11.911941286212834 H 0.0 **** 0.41
1476 H 34.27973393498399 19.36698579332001 10.528138849896237 H 0.0 **** 0.41
1477 O 16.00266925214673 2.934089739125937 24.792183085677973 O 0.0 **** -0.82
1478 H 15.490766777412853 3.581181648653188 24.196094039980025 H 0.0 **** 0.41
1479 H 17.030872277064354 3.127711608997022 24.589873251404427 H 0.0 **** 0.41
1480 O 8.894287488759446 28.89841944544235 30.21522113073317 O 0.0 **** -0.82
1481 H 8.002599312824659 28.4126038606638 30.21355951213434 H 0.0 **** 0.41
1482 H 9.467357221375531 28.378882330199154 30.89179023869059 H 0.0 **** 0.41
1483 O 18.219641224675193 42.732481694791964 15.921692523434434 O 0.0 **** -0.82
1484 H 18.311230139951427 43.03870131729643 14.992069078456288 H 0.0 **** 0.41
1485 H 18.178610372180025 41.75437128804973 15.79197931080262 H 0.0 **** 0.41
1486 O 37.47952426380657 27.402705372856172 11.733682227039795 O 0.0 **** -0.82
1487 H 38.15205890045102 28.015942140284167 11.170069243693494 H 0.0 **** 0.41
1488 H 36.69184189456782 27.19115358594094 11.139043588913637 H 0.0 **** 0.41
1489 O 34.93059045512409 45.943281056819316 10.22222544237273 O 0.0 **** -0.82
1490 H 35.50763029359368 45.13996227652205 10.497983230010522 H 0.0 **** 0.41
1491 H 34.08171319987375 45.90537708179379 10.777884887138562 H 0.0 **** 0.41
1492 O 47.33016559500554 23.1254415993333 27.792412388153075 O 0.0 **** -0.82
1493 H 47.52332232111475 22.146238703055772 27.89692663379931 H 0.0 **** 0.41
1494 H 47.29319092592627 23.53226144420556 28.71672309428835 H 0.0 **** 0.41
1495 O 32.90051269693431 47.687211910817986 46.09334125013268 O 0.0 **** -0.82
1496 H 33.244308030285225 47.87813146037014 45.149017986489206 H 0.0 **** 0.41
1497 H 33.1711617821066 48.59721697436761 46.55526425490659 H 0.0 **** 0.41
1498 O 6.5094451757872065 42.12636561917705 8.349605476429954 O 0.0 **** -0.82
1499 H 6.510860015705985 41.605522038041656 7.4559670592586285 H 0.0 **** 0.41
1500 H 6.803439621331101 43.045752153757995 8.079911302579255 H 0.0 **** 0.41
1501 O 46.41546181427582 0.568612598466891 3.332981655608911 O 0.0 **** -0.82
1502 H 46.2301382848036 0.20981125449824764 2.397348851140778 H 0.0 **** 0.41
1503 H 46.801402304635545 -0.23704699149556774 3.926191114539076 H 0.0 **** 0.41
1504 O 46.168833278871716 25.128285643620288 2.2726408252853645 O 0.0 **** -0.82
1505 H 46.47524841302869 24.542631362427425 1.480268358942503 H 0.0 **** 0.41
1506 H 46.70785258914545 24.759019604908563 3.018906803886736 H 0.0 **** 0.41
1507 O 11.585307897518486 11.454614899631437 6.289453895734162 O 0.0 **** -0.82
1508 H 11.908445692592053 12.337964723387579 5.99231692627761 H 0.0 **** 0.41
1509 H 10.753745603437874 11.672626016022772 6.848536804133111 H 0.0 **** 0.41
1510 O 31.728026575344906 3.3169356082494232 7.535114881969907 O 0.0 **** -0.82
1511 H 31.780847774270782 4.350896659166331 7.690356244858149 H 0.0 **** 0.41
1512 H 32.487865278268686 3.0443670617239107 6.940243774248898 H 0.0 **** 0.41
1513 O 24.64878074500501 48.90367371388747 9.862127884605997 O 0.0 **** -0.82
1514 H 24.48374860282167 48.03404512934295 9.279530943897939 H 0.0 **** 0.41
1515 H 25.144465732947182 48.52886718219015 10.66307718571693 H 0.0 **** 0.41
1516 O 42.65824729980248 1.3551378681867674 36.807677607136846 O 0.0 **** -0.82
1517 H 42.3077124389815 1.0963490473535604 35.88631947394722 H 0.0 **** 0.41
1518 H 42.132940860737136 2.2122646885917012 36.94474500320587 H 0.0 **** 0.41
1519 O 1.7003971369374373 32.97661089410746 0.5476854145958191 O 0.0 **** -0.82
1520 H 0.864297214734777 32.468682215072185 0.6941126088472748 H 0.0 **** 0.41
1521 H 1.556343473359008 33.37142435860838 -0.40316619803336806 H 0.0 **** 0.41
1522 O 18.5329138176387 8.289851605965481 36.997067987130166 O 0.0 **** -0.82
1523 H 18.557942701814397 7.618751305400039 36.165078628047134 H 0.0 **** 0.41
1524 H 19.10288727305945 7.903750895742519 37.714643765838964 H 0.0 **** 0.41
1525 O 46.82276472303509 19.672659526487234 41.137972116421516 O 0.0 **** -0.82
1526 H 46.33541809098768 20.132730538238263 40.33147353791189 H 0.0 **** 0.41
1527 H 46.137409824735734 19.283646613740657 41.77531192903669 H 0.0 **** 0.41
1528 O 37.871401910155015 34.403422228858666 30.76787953597434 O 0.0 **** -0.82
1529 H 38.31065673040118 34.92500017776647 31.51623951433695 H 0.0 **** 0.41
1530 H 38.62237234230726 34.43789398723972 30.07453095391129 H 0.0 **** 0.41
1531 O 1.9738116146081714 18.464508225968373 20.402912107369698 O 0.0 **** -0.82
1532 H 1.1294676110872885 18.680333540204543 19.791023697169305 H 0.0 **** 0.41
1533 H 1.917579075477721 19.121117059343092 21.20121560521594 H 0.0 **** 0.41
1534 O 10.96877704515115 31.080266701963918 28.670762445204293 O 0.0 **** -0.82
1535 H 11.896349584225497 31.496128379420487 28.673001125727126 H 0.0 **** 0.41
1536 H 11.157494157964251 30.102802595141355 28.634281959822857 H 0.0 **** 0.41
1537 O 1.489185234060389 38.8401121670542 0.44706954619225314 O 0.0 **** -0.82
1538 H 1.4609355787183276 39.12778485907119 1.4329799249505513 H 0.0 **** 0.41
1539 H 2.433151237007623 38.47954653904846 0.34255380866171237 H 0.0 **** 0.41
1540 O 29.488434983728226 40.512514899077615 25.277359744839597 O 0.0 **** -0.82
1541 H 30.335935013123304 40.91458156700128 25.007220331475402 H 0.0 **** 0.41
1542 H 29.45898540870163 39.62874382164776 24.78601025543032 H 0.0 **** 0.41
1543 O 47.619603668661654 13.160395428284943 35.19594761458789 O 0.0 **** -0.82
1544 H 46.76064566517927 13.440676310330597 34.736781048440974 H 0.0 **** 0.41
1545 H 48.17074207573883 12.577733728867692 34.5818955828062 H 0.0 **** 0.41
1546 O 3.036235090153113 14.12130378120207 26.20688177695139 O 0.0 **** -0.82
1547 H 2.2332210122670375 14.62415762697668 25.914536813963494 H 0.0 **** 0.41
1548 H 3.3220913787710487 14.43296742207437 27.100020810747825 H 0.0 **** 0.41
1549 O 43.858055253340154 13.145251028110621 18.915182684171572 O 0.0 **** -0.82
1550 H 43.24811400311852 13.066821450866986 18.117222014599204 H 0.0 **** 0.41
1551 H 43.295118236814524 12.672272224938435 19.67361177964844 H 0.0 **** 0.41
1552 O 7.979296690839273 6.058487361349036 20.771759422167406 O 0.0 **** -0.82
1553 H 8.25344089016721 5.671790249197349 21.657305254374336 H 0.0 **** 0.41
1554 H 8.81616542143639 6.560815381829849 20.473513493656597 H 0.0 **** 0.41
1555 O 2.9684878862658266 30.60607796831954 18.292202722679253 O 0.0 **** -0.82
1556 H 3.6036775255280773 29.97397201812477 18.846223228309835 H 0.0 **** 0.41
1557 H 2.086160639862406 30.62468626555686 18.735365168680207 H 0.0 **** 0.41
1558 O 27.77836608322474 3.711679647739552 18.0042598576684 O 0.0 **** -0.82
1559 H 27.270781856014434 4.18966701534668 18.762062504013805 H 0.0 **** 0.41
1560 H 27.47916556869564 2.746895439946417 17.994003165903475 H 0.0 **** 0.41
1561 O 10.321618971811489 7.454927892551997 5.885298236001837 O 0.0 **** -0.82
1562 H 11.02109175915672 7.021804015628 5.288034907073815 H 0.0 **** 0.41
1563 H 10.850896687075451 8.182104843089142 6.442007011369832 H 0.0 **** 0.41
1564 O 5.32839074699349 39.71534969918 9.739600980726607 O 0.0 **** -0.82
1565 H 6.318038666510504 39.81669006885703 9.864093333003993 H 0.0 **** 0.41
1566 H 5.02553158765749 40.08887885836332 10.590909318553244 H 0.0 **** 0.41
1567 O 14.096423206424701 5.4783421333305515 2.754274135975341 O 0.0 **** -0.82
1568 H 14.378442187870258 4.556830500783729 3.075920654267274 H 0.0 **** 0.41
1569 H 13.672666070232685 5.426816671121701 1.810982757476507 H 0.0 **** 0.41
1570 O 33.07144516416469 36.90970563751449 18.429761912135433 O 0.0 **** -0.82
1571 H 32.78793303636642 35.96909420330479 18.389681455905603 H 0.0 **** 0.41
1572 H 34.09934988185387 36.900486217336834 18.236317419697144 H 0.0 **** 0.41
1573 O 40.72716797335076 23.150459204231634 36.70228307961581 O 0.0 **** -0.82
1574 H 41.54832918718751 23.70102503393082 37.00142300923661 H 0.0 **** 0.41
1575 H 39.85723779934751 23.59430427482317 37.07036007243327 H 0.0 **** 0.41
1576 O 37.90858903410248 27.191771243253218 1.2770397230150081 O 0.0 **** -0.82
1577 H 37.815021818662544 27.275748925384192 0.2948593385677327 H 0.0 **** 0.41
1578 H 37.05483093933126 27.473431605546473 1.7435182044734034 H 0.0 **** 0.41
1579 O 29.343920876952268 26.4308274256755 34.22090254879142 O 0.0 **** -0.82
1580 H 29.143960318627624 27.39163700348061 34.46450984381477 H 0.0 **** 0.41
1581 H 29.642526321237884 25.938864351327098 35.0422607871593 H 0.0 **** 0.41
1582 O 44.89213220037775 0.25835531257330757 40.58015058644214 O 0.0 **** -0.82
1583 H 43.934974117786936 0.13418415251329918 40.77159773546506 H 0.0 **** 0.41
1584 H 45.051604228297165 -0.47008389437004894 39.898282098153 H 0.0 **** 0.41
1585 O 14.518696050695283 18.196667682657303 25.57325521727399 O 0.0 **** -0.82
1586 H 15.292026107503439 17.636874940674993 25.8785495322187 H 0.0 **** 0.41
1587 H 13.717925456599783 17.640989309301652 25.756598360912584 H 0.0 **** 0.41
1588 O 43.17293479929586 28.70033640068752 18.95163187456859 O 0.0 **** -0.82
1589 H 43.71486293201232 28.92620665834778 19.823928965295767 H 0.0 **** 0.41
1590 H 43.79526996695556 28.807993436483017 18.134799568027347 H 0.0 **** 0.41
1591 O 5.3228830336555415 47.74503750776862 13.586498014325205 O 0.0 **** -0.82
1592 H 6.098246136519142 47.88228590101233 14.245182457155767 H 0.0 **** 0.41
1593 H 5.68045514348682 46.97372145027398 13.034780468904025 H 0.0 **** 0.41
1594 O 17.648984996040227 17.656740629455207 37.96320420351518 O 0.0 **** -0.82
1595 H 17.748271051915268 17.749928737846822 38.939398959411754 H 0.0 **** 0.41
1596 H 16.717247899751083 17.921042788706803 37.72252264573793 H 0.0 **** 0.41
1597 O 3.6819139568446673 28.695406697981518 39.84032830440806 O 0.0 **** -0.82
1598 H 4.0207958138596 29.5968904756794 39.45352280694472 H 0.0 **** 0.41
1599 H 2.6688427348040165 28.658137253766185 39.83799301739485 H 0.0 **** 0.41
1600 O 11.958165882562996 25.523440088047384 36.2904967142342 O 0.0 **** -0.82
1601 H 12.124146532731896 26.53293930680366 36.2414857701002 H 0.0 **** 0.41
1602 H 11.162243585516924 25.400393233379724 36.92537464386546 H 0.0 **** 0.41
1603 O 39.74162868089049 19.04295434865239 3.40447219015509 O 0.0 **** -0.82
1604 H 39.84474115736271 18.467072203325333 2.5812886956046626 H 0.0 **** 0.41
1605 H 40.203268700394126 19.88900117716751 3.142846330938852 H 0.0 **** 0.41
1606 O 32.14538395099647 1.9832536984729927 0.5947005900677738 O 0.0 **** -0.82
1607 H 31.752961990223803 1.0536167285936529 0.7119125889284135 H 0.0 **** 0.41
1608 H 31.56920771406195 2.400406123230418 -0.08130595517559414 H 0.0 **** 0.41
1609 O 16.695817716876828 18.133836935692248 20.05324830554684 O 0.0 **** -0.82
1610 H 17.3478135357386 18.803966822550358 20.50250142618628 H 0.0 **** 0.41
1611 H 16.857342622214446 18.380295403382785 19.081881630418867 H 0.0 **** 0.41
1612 O 10.070869055086312 8.93841513350623 9.8496808833265 O 0.0 **** -0.82
1613 H 9.65002033661208 8.002820195294309 9.903895287732809 H 0.0 **** 0.41
1614 H 9.272952135770915 9.551948088522472 10.017635731931648 H 0.0 **** 0.41
1615 O 0.43303292371119734 17.54394043532919 31.389694876904265 O 0.0 **** -0.82
1616 H -0.3679779547636599 17.105018518737914 30.97332454889477 H 0.0 **** 0.41
1617 H 0.4048597065434815 18.51725764388703 31.026997504484022 H 0.0 **** 0.41
1618 O 26.76105787444401 26.211945606932744 2.970815692519312 O 0.0 **** -0.82
1619 H 26.082800752055533 26.696135827821962 3.5036933791606533 H 0.0 **** 0.41
1620 H 27.445665240749257 25.736410234559997 3.5922082237726993 H 0.0 **** 0.41
1621 O 27.066135436373035 39.316816641682536 5.735977600960293 O 0.0 **** -0.82
1622 H 26.327973292796713 38.63651953912068 5.588628961566925 H 0.0 **** 0.41
1623 H 27.907239324346346 38.92043789350222 5.383505804445239 H 0.0 **** 0.41
1624 O 47.11114420198683 6.529654122265237 22.37242532400158 O 0.0 **** -0.82
1625 H 47.132716251460664 5.905887592645695 23.169611829916448 H 0.0 **** 0.41
1626 H 47.05485714819833 7.395366116442017 22.840448219205985 H 0.0 **** 0.41
1627 O 1.3263494154147937 15.360838294125214 48.22743683522169 O 0.0 **** -0.82
1628 H 0.9577797842576605 16.122454198951466 47.63368327696393 H 0.0 **** 0.41
1629 H 2.1028018783378024 14.977619264061778 47.709556700055266 H 0.0 **** 0.41
1630 O 19.79930923976422 19.180595524780145 7.92171027813685 O 0.0 **** -0.82
1631 H 20.66143154165822 18.66744053019103 8.007909587890168 H 0.0 **** 0.41
1632 H 19.433132246946453 18.82487076325539 7.060700489825997 H 0.0 **** 0.41
1633 O 33.919491368618466 15.389716268577411 28.217819967810286 O 0.0 **** -0.82
1634 H 33.0090540191545 15.064751057100093 28.476083806023397 H 0.0 **** 0.41
1635 H 34.41640881694695 15.356318369794835 29.112222895300178 H 0.0 **** 0.41
1636 O 39.959081289525706 32.48037494335773 35.720686970812665 O 0.0 **** -0.82
1637 H 40.33407553728834 31.878439600521112 36.42918920663006 H 0.0 **** 0.41
1638 H 39.445698134579274 33.153450048722334 36.171033690673305 H 0.0 **** 0.41
1639 O 4.255383182783746 40.878425344407816 2.3902217196179456 O 0.0 **** -0.82
1640 H 5.0251382155141044 40.84315278343921 1.7112753433117025 H 0.0 **** 0.41
1641 H 4.031693618166273 39.9006313166763 2.6829684692137126 H 0.0 **** 0.41
1642 O 37.7400257938612 14.333911915940348 9.751638550035288 O 0.0 **** -0.82
1643 H 37.43548764176052 13.833069956623028 8.954709963832855 H 0.0 **** 0.41
1644 H 38.195156064826605 13.631996066998369 10.383500328499267 H 0.0 **** 0.41
1645 O 28.22094520368668 35.40246529846564 18.226991036050208 O 0.0 **** -0.82
1646 H 29.19916289299869 35.42092439577772 17.999116280420125 H 0.0 **** 0.41
1647 H 28.057398517336225 34.50027816212916 18.60325424252946 H 0.0 **** 0.41
1648 O 2.0439790531730893 10.163894665166481 13.354444539253521 O 0.0 **** -0.82
1649 H 2.9735771654038388 10.118238204125753 13.835114968768288 H 0.0 **** 0.41
1650 H 2.173950533370231 10.545249528113395 12.426179782732078 H 0.0 **** 0.41
1651 O 28.27188234747697 48.71054242248953 9.897577592569611 O 0.0 **** -0.82
1652 H 28.624040792549867 47.82745452941979 9.618395479351719 H 0.0 **** 0.41
1653 H 28.528335629642335 49.199094501302 9.027336509343229 H 0.0 **** 0.41
1654 O 13.20783236788784 6.986986225275494 30.04872649607154 O 0.0 **** -0.82
1655 H 13.766368198155547 7.614169678828086 29.41118456002114 H 0.0 **** 0.41
1656 H 12.841965540651286 6.328740036524915 29.40878961812649 H 0.0 **** 0.41
1657 O 18.486383153234385 17.845268237120685 5.843453149521782 O 0.0 **** -0.82
1658 H 19.360015293018222 17.421143788281324 5.614040817331119 H 0.0 **** 0.41
1659 H 17.848410058314045 17.066761217578883 5.937892663465009 H 0.0 **** 0.41
1660 O 44.323704561709654 1.7553782991583189 4.590348393877271 O 0.0 **** -0.82
1661 H 44.096786892207795 1.0298476455716343 5.264323533150289 H 0.0 **** 0.41
1662 H 45.23567918163301 1.4529883165657838 4.191373034224696 H 0.0 **** 0.41
1663 O 1.5837216328039156 48.38123351402511 28.39272453727342 O 0.0 **** -0.82
1664 H 1.861658474542564 49.22471773276975 27.895581573884254 H 0.0 **** 0.41
1665 H 2.4018239409088067 47.99729035819076 28.852940691206044 H 0.0 **** 0.41
1666 O 8.170558929938556 25.660521964440093 19.223022734189744 O 0.0 **** -0.82
1667 H 8.198004520090556 25.886915561711717 20.224703557353042 H 0.0 **** 0.41
1668 H 9.100054491046075 25.84791683123538 18.876686061631215 H 0.0 **** 0.41
1669 O 23.632870069075892 16.077290433208187 17.463279933221713 O 0.0 **** -0.82
1670 H 22.883572595015977 16.0818294957133 18.107532939338213 H 0.0 **** 0.41
1671 H 23.84119908299553 15.07241171624206 17.430052036345955 H 0.0 **** 0.41
1672 O 30.371093603020952 45.19958725258737 37.83303891884536 O 0.0 **** -0.82
1673 H 30.846756937594822 45.55003403352478 37.00536400755194 H 0.0 **** 0.41
1674 H 30.236629243613933 44.20391767180633 37.66612037555449 H 0.0 **** 0.41
1675 O 46.614099171051535 43.10927663271408 26.524226053172136 O 0.0 **** -0.82
1676 H 47.06230987176457 44.02225416390787 26.41695367377175 H 0.0 **** 0.41
1677 H 46.350966288448774 43.13324431382464 27.472647557138398 H 0.0 **** 0.41
1678 O 3.057456388168665 37.51963989509693 20.18348382760203 O 0.0 **** -0.82
1679 H 2.096285121928656 37.911619266207474 19.978904280017016 H 0.0 **** 0.41
1680 H 3.6156582700171396 37.75661485657978 19.417641139523187 H 0.0 **** 0.41
1681 O 44.08563277899849 45.425563841182516 40.05243317838188 O 0.0 **** -0.82
1682 H 43.43389155379811 46.21340022620027 40.172961374646206 H 0.0 **** 0.41
1683 H 43.43940934769741 44.606858633619424 40.099375770358584 H 0.0 **** 0.41
1684 O 29.461538910706643 42.16985458548602 40.76884275435885 O 0.0 **** -0.82
1685 H 29.889361621219855 41.83165519401433 41.61434953379104 H 0.0 **** 0.41
1686 H 28.871969463322042 41.37587361538391 40.56648902637091 H 0.0 **** 0.41
1687 O 30.633598684947785 0.17552702326845093 5.598100562790201 O 0.0 **** -0.82
1688 H 29.97422214673003 0.5257101134888842 4.882287981156892 H 0.0 **** 0.41
1689 H 31.51517993709828 0.5771330342167005 5.453393051007133 H 0.0 **** 0.41
1690 O 44.11959906706722 30.243131034451768 37.91660980950619 O 0.0 **** -0.82
1691 H 44.262395996076194 31.042740347766728 37.26589389726083 H 0.0 **** 0.41
1692 H 43.8153104404851 30.618635363942296 38.779730293848196 H 0.0 **** 0.41
1693 O 43.70493404668842 44.065859487675425 47.2288554899061 O 0.0 **** -0.82
1694 H 43.17291802306014 44.19831477152477 46.394750326488996 H 0.0 **** 0.41
1695 H 42.974161899260636 43.92559666743726 47.951740693901336 H 0.0 **** 0.41
1696 O 20.831314305471974 25.52694847620109 12.750747300215417 O 0.0 **** -0.82
1697 H 19.852327342883346 25.793146158565094 12.761397068897287 H 0.0 **** 0.41
1698 H 20.805722044783643 24.877303198706123 13.523201567969966 H 0.0 **** 0.41
1699 O 32.42624441941185 48.17929423597923 14.740225310579445 O 0.0 **** -0.82
1700 H 33.05853186671306 47.660036112421935 15.344729096642638 H 0.0 **** 0.41
1701 H 33.09267305383965 48.878630189310854 14.478143099560077 H 0.0 **** 0.41
1702 O 4.166214943658864 38.1400103938336 2.9019784221526876 O 0.0 **** -0.82
1703 H 4.557935963983158 37.321756287281076 2.420815314292676 H 0.0 **** 0.41
1704 H 3.314059755945899 37.92500568249816 3.4371132425282744 H 0.0 **** 0.41
1705 O 22.38155488503866 38.38617130630628 4.583204633665922 O 0.0 **** -0.82
1706 H 23.19069447938629 38.19546805911685 5.103569370388001 H 0.0 **** 0.41
1707 H 21.734842003846648 38.60251154651601 5.368710787960803 H 0.0 **** 0.41
1708 O 29.336033832600943 22.066212789381712 8.745055522924863 O 0.0 **** -0.82
1709 H 29.623066259317746 21.34675425466249 9.363816760253506 H 0.0 **** 0.41
1710 H 28.98486608750733 21.642839481545337 7.92489118203767 H 0.0 **** 0.41
1711 O 8.597343189994987 16.850291495291273 11.3348408820178 O 0.0 **** -0.82
1712 H 8.625855587125507 17.871154617479604 11.440420906441128 H 0.0 **** 0.41
1713 H 8.626752673778519 16.616000303782755 12.309945663378949 H 0.0 **** 0.41
1714 O 25.12114378742841 2.8091510715365757 13.693945169952952 O 0.0 **** -0.82
1715 H 24.320299186591402 2.715466944629192 14.381620552934658 H 0.0 **** 0.41
1716 H 25.87633753628798 2.5832847696684382 14.408877020764686 H 0.0 **** 0.41
1717 O 36.738953520991664 49.33208782733195 13.952347829571677 O 0.0 **** -0.82
1718 H 37.54196592462743 48.752979926763885 13.657994948629748 H 0.0 **** 0.41
1719 H 37.065024277864254 49.96860401639117 14.667090287478475 H 0.0 **** 0.41
1720 O 39.334932025864134 35.70463328095113 17.999589622203846 O 0.0 **** -0.82
1721 H 39.596801214150844 35.68302400209925 18.992912470241496 H 0.0 **** 0.41
1722 H 39.41511841255635 36.64211024813717 17.723390296216376 H 0.0 **** 0.41
1723 O 8.374393915068804 38.620628365035614 35.55356637510787 O 0.0 **** -0.82
1724 H 8.941084977650656 38.862741970255826 36.34222032775754 H 0.0 **** 0.41
1725 H 8.923543406278865 37.8998098440008 35.070204367463965 H 0.0 **** 0.41
1726 O 2.917726981628917 4.133055868813995 48.38934025356138 O 0.0 **** -0.82
1727 H 3.255966076533788 5.061329977997921 48.667774538484885 H 0.0 **** 0.41
1728 H 2.2118564717110516 4.384622647584902 47.68606422341617 H 0.0 **** 0.41
1729 O 5.339015520670159 23.25527253518133 33.30693172926674 O 0.0 **** -0.82
1730 H 5.649794458687431 22.767967805201796 32.46562845782253 H 0.0 **** 0.41
1731 H 6.239561227029739 23.734610198882706 33.57228275014812 H 0.0 **** 0.41
1732 O 12.722694750524214 13.837477766585486 27.92632487006662 O 0.0 **** -0.82
1733 H 12.060339231871202 13.643933042482109 27.17524107289232 H 0.0 **** 0.41
1734 H 12.836422708124553 13.032437858647066 28.568508024028485 H 0.0 **** 0.41
1735 O 39.76189992723979 19.732643678472876 49.66928210158618 O 0.0 **** -0.82
1736 H 40.48627459638741 19.128932753531533 50.18824617238971 H 0.0 **** 0.41
1737 H 39.34861162831134 19.352380144636328 48.797349945227865 H 0.0 **** 0.41
1738 O 14.259997915586261 32.36620077570153 40.80737965689458 O 0.0 **** -0.82
1739 H 14.028569682468202 33.31861376361254 41.04750471495401 H 0.0 **** 0.41
1740 H 14.665767609590638 31.947372600115234 41.63364954673142 H 0.0 **** 0.41
1741 O 39.982863031608 27.846432693833123 20.754680669200983 O 0.0 **** -0.82
1742 H 40.08041989966749 28.746705180725428 21.22164512759012 H 0.0 **** 0.41
1743 H 39.80458344607184 27.260708651301158 21.53016534581253 H 0.0 **** 0.41
1744 O 2.994085048190982 49.10113202683118 18.058500827290146 O 0.0 **** -0.82
1745 H 3.649091554151852 49.66506504979323 18.56915235518212 H 0.0 **** 0.41
1746 H 2.392858908265808 48.5343739932256 18.69814489325491 H 0.0 **** 0.41
1747 O 29.246748711062185 22.98434244413432 30.58025762909778 O 0.0 **** -0.82
1748 H 29.234217910606677 23.614744987761295 29.804764579026312 H 0.0 **** 0.41
1749 H 28.95520809720115 22.126294839345373 30.122684948241933 H 0.0 **** 0.41
1750 O 8.546481531635777 3.7626029716370297 44.234986787899004 O 0.0 **** -0.82
1751 H 8.221601047255483 2.8209997048938646 44.03926762096269 H 0.0 **** 0.41
1752 H 7.719859289216785 4.2090678972859905 44.70742364938325 H 0.0 **** 0.41
1753 O 23.34837317134328 48.51129783085784 14.517623144684393 O 0.0 **** -0.82
1754 H 23.60849396738899 48.01098645614443 13.724034174814697 H 0.0 **** 0.41
1755 H 23.419824602169932 47.92654626683501 15.307624548423775 H 0.0 **** 0.41
1756 O 10.700705067370267 15.78669298533278 34.777790626232154 O 0.0 **** -0.82
1757 H 11.067827513224254 14.82211168225847 34.626669884506455 H 0.0 **** 0.41
1758 H 9.969254416009894 15.719782951541081 35.50903471432941 H 0.0 **** 0.41
1759 O 10.303093751681175 31.930968519216734 35.915433816671644 O 0.0 **** -0.82
1760 H 10.772565798657254 32.73076068261352 36.30691904638426 H 0.0 **** 0.41
1761 H 10.163972050746189 32.216199218899646 34.9279908522946 H 0.0 **** 0.41
1762 O 42.597505398263 37.09064743493 45.3953333838481 O 0.0 **** -0.82
1763 H 42.88510960055891 37.13664552172528 46.456163803203474 H 0.0 **** 0.41
1764 H 41.900835880988865 37.77371506084657 45.484116527058255 H 0.0 **** 0.41
1765 O 21.900498690636713 39.35997259011806 33.932526440827104 O 0.0 **** -0.82
1766 H 22.61037332954426 38.66736603011248 34.2803296326804 H 0.0 **** 0.41
1767 H 21.520454567784522 39.877377058356714 34.68385238223607 H 0.0 **** 0.41
1768 O 15.639370645114454 16.99163211856861 43.758355317006774 O 0.0 **** -0.82
1769 H 15.151532775987349 17.73002165583641 44.274801128284146 H 0.0 **** 0.41
1770 H 16.520136679726676 16.878223264395043 44.25182345448667 H 0.0 **** 0.41
1771 O 9.46606173165658 41.95669660017031 3.7896309119140756 O 0.0 **** -0.82
1772 H 8.680416091877518 41.76055193436184 3.15830990241947 H 0.0 **** 0.41
1773 H 10.197326972428257 42.28393612844293 3.1535634376538537 H 0.0 **** 0.41
1774 O 43.276352488339576 44.11715510591556 18.576619962855165 O 0.0 **** -0.82
1775 H 42.53284527348601 43.374149565653475 18.465669493645745 H 0.0 **** 0.41
1776 H 43.647902738459415 43.98195310274732 19.458014367871193 H 0.0 **** 0.41
1777 O 27.587778694672476 18.110069246313742 1.1611999314290742 O 0.0 **** -0.82
1778 H 27.639893725689365 17.4201613444516 1.973552473838538 H 0.0 **** 0.41
1779 H 26.74660120136749 17.951009125323054 0.5994949405562409 H 0.0 **** 0.41
1780 O 33.51812426604086 24.03269111836693 42.73703052109953 O 0.0 **** -0.82
1781 H 33.1916547422154 24.452997110691047 41.83083664100098 H 0.0 **** 0.41
1782 H 32.9367723667019 23.21188408878807 42.98728042006888 H 0.0 **** 0.41
1783 O 44.36889724485613 45.011071554505854 0.22576772534790024 O 0.0 **** -0.82
1784 H 45.31039866714186 44.76808787261142 -0.05889796731687369 H 0.0 **** 0.41
1785 H 44.0507311789441 44.18535928550052 0.6874591072405991 H 0.0 **** 0.41
1786 O 46.77619655040629 9.906783076636934 34.25644350095442 O 0.0 **** -0.82
1787 H 47.21621502614658 9.106161234857803 33.77959234067855 H 0.0 **** 0.41
1788 H 45.87988687117227 9.52463076491522 34.566140154844334 H 0.0 **** 0.41
1789 O 7.300643668767194 37.3432665946702 40.11607808106444 O 0.0 **** -0.82
1790 H 8.043107562032418 37.8041055851152 40.53971243531861 H 0.0 **** 0.41
1791 H 7.648306968978574 36.898434792678074 39.28547633918724 H 0.0 **** 0.41
1792 O 32.80024334587496 42.460149445143564 23.391132582573658 O 0.0 **** -0.82
1793 H 32.015711596070076 42.1958260423904 22.751043463620586 H 0.0 **** 0.41
1794 H 32.50973669497953 42.07800102786679 24.320772555548373 H 0.0 **** 0.41
1795 O 28.571068690716253 25.602058319038772 5.057597295858997 O 0.0 **** -0.82
1796 H 28.405413146788653 26.502881529997605 5.365004261309357 H 0.0 **** 0.41
1797 H 28.796818113676906 24.913760133559236 5.844880461575198 H 0.0 **** 0.41
1798 O 47.405069898319745 30.922786504379857 30.631987225758557 O 0.0 **** -0.82
1799 H 47.59105856313336 31.227921055459007 29.64266537852032 H 0.0 **** 0.41
1800 H 47.9101031762473 31.541010940720586 31.22085423137357 H 0.0 **** 0.41
1801 O 33.119300486890886 24.696976047982908 12.436760058451503 O 0.0 **** -0.82
1802 H 33.33966117225809 23.783316066646144 12.874141678948874 H 0.0 **** 0.41
1803 H 32.33373061338305 25.108532945481663 12.921838639478096 H 0.0 **** 0.41
1804 O 28.55727236427997 9.355114797687884 9.544882725062028 O 0.0 **** -0.82
1805 H 28.021299005731574 9.291773471341093 8.728805077491238 H 0.0 **** 0.41
1806 H 28.396880295522653 10.261787841614101 9.906775145869972 H 0.0 **** 0.41
1807 O 34.36825874979097 5.347145889924668 47.02183201593847 O 0.0 **** -0.82
1808 H 34.15493369383394 6.3023639669801454 47.22478780271 H 0.0 **** 0.41
1809 H 34.59003941280679 5.323780806143887 46.03932837257521 H 0.0 **** 0.41
1810 O 33.08640010809159 30.92143028908579 44.584115952875074 O 0.0 **** -0.82
1811 H 33.34897349672031 31.639019264357472 43.95988971175662 H 0.0 **** 0.41
1812 H 32.12634854908357 31.18518945701527 44.84324894638245 H 0.0 **** 0.41
1813 O 25.30942072387442 11.12884005720618 49.244385116743885 O 0.0 **** -0.82
1814 H 25.036529574064424 10.913189171525977 50.19139732011019 H 0.0 **** 0.41
1815 H 26.310271109511458 11.321725850451612 49.33699114668452 H 0.0 **** 0.41
1816 O 47.245035492904236 46.98509533189994 46.874839385113525 O 0.0 **** -0.82
1817 H 46.975861456964 46.31691628598479 46.19709695784588 H 0.0 **** 0.41
1818 H 46.79277401825942 47.78030552279279 46.455845590504204 H 0.0 **** 0.41
1819 O 6.9690013979688565 6.0075768018625695 2.800701434224035 O 0.0 **** -0.82
1820 H 7.080260791633559 5.0496927007576105 3.0780190395252283 H 0.0 **** 0.41
1821 H 7.789037971722077 6.441863660361072 3.1642302210673963 H 0.0 **** 0.41
1822 O 7.437627925677566 15.785529054371466 30.764019202159346 O 0.0 **** -0.82
1823 H 7.3213608504298024 14.818548074788028 30.557178246080596 H 0.0 **** 0.41
1824 H 6.7588968789190895 15.996942270310559 31.53232004196275 H 0.0 **** 0.41
1825 O 19.095518822696924 46.441710263432064 21.12354884720074 O 0.0 **** -0.82
1826 H 20.049636158115476 46.53343187317413 20.807311718102717 H 0.0 **** 0.41
1827 H 18.757596560080437 45.51788349124034 20.919214116822815 H 0.0 **** 0.41
1828 O 26.19791801245871 46.79387494095804 6.472372787445732 O 0.0 **** -0.82
1829 H 25.794909673557854 46.00579871885424 5.993461811052126 H 0.0 **** 0.41
1830 H 27.006715526839812 46.43331948651682 6.874826558487613 H 0.0 **** 0.41
1831 O 38.68228692900453 12.51613569191301 43.71374719342392 O 0.0 **** -0.82
1832 H 38.62574969388938 12.254066555526775 44.684522480585265 H 0.0 **** 0.41
1833 H 39.08005385624105 11.673578990840015 43.343490324333494 H 0.0 **** 0.41
1834 O 36.10075569134455 45.10100359947962 28.556160034146277 O 0.0 **** -0.82
1835 H 36.274669991455816 45.466595735365956 29.43948533691727 H 0.0 **** 0.41
1836 H 37.07462488252065 44.9706690875312 28.151104424568206 H 0.0 **** 0.41
1837 O 40.85171293121003 27.5937012241325 39.634657199107416 O 0.0 **** -0.82
1838 H 41.85544993604161 27.294514746876363 39.494636390758274 H 0.0 **** 0.41
1839 H 40.355921481622374 27.277698202748194 38.84308770249915 H 0.0 **** 0.41
1840 O 32.96626274077259 39.0014983787601 3.6572118977108254 O 0.0 **** -0.82
1841 H 32.821298389905124 38.031526041465085 3.8554829037262746 H 0.0 **** 0.41
1842 H 33.72756183576186 39.173506418565815 4.320631774493412 H 0.0 **** 0.41
1843 O 49.78075706051024 11.831444809567365 46.924129368162546 O 0.0 **** -0.82
1844 H 50.289280833214974 11.651103732836333 46.0553939020693 H 0.0 **** 0.41
1845 H 49.05891595560407 12.447248603869411 46.60681442939106 H 0.0 **** 0.41
1846 O 4.502919565026943 20.099753792013278 21.619835902076918 O 0.0 **** -0.82
1847 H 3.6318726715441016 19.768032717665097 22.093552642195874 H 0.0 **** 0.41
1848 H 5.073228327389067 19.26479359571978 21.36671670870781 H 0.0 **** 0.41
1849 O 16.066481135559453 8.530409772393956 32.353270409232465 O 0.0 **** -0.82
1850 H 15.91967282018684 9.286188029150123 32.96718162545797 H 0.0 **** 0.41
1851 H 15.24271858937325 7.966218796630088 32.39301374036753 H 0.0 **** 0.41
1852 O 27.235504119812596 17.137114464454626 39.359628401233095 O 0.0 **** -0.82
1853 H 27.0410626188903 18.108727695126404 39.074879290457716 H 0.0 **** 0.41
1854 H 27.301538182098106 16.660531280040196 38.45378594318963 H 0.0 **** 0.41
1855 O 34.54906619736399 13.067664800728927 15.918083136979892 O 0.0 **** -0.82
1856 H 33.57029041895335 13.268014457353836 15.700325465560445 H 0.0 **** 0.41
1857 H 34.65638328479446 13.581228525763578 16.775854327658802 H 0.0 **** 0.41
1858 O 20.205377181338534 30.224772097115846 29.486257985013822 O 0.0 **** -0.82
1859 H 20.817559545003334 29.714697181713092 30.101425481388837 H 0.0 **** 0.41
1860 H 19.49840915283231 30.849180167624183 29.9436238036568 H 0.0 **** 0.41
1861 O 7.323755735421052 44.4249577439606 39.89045387839736 O 0.0 **** -0.82
1862 H 8.225751781936331 44.622831115379995 40.29117104938128 H 0.0 **** 0.41
1863 H 7.4328420278769585 44.881624181517 38.95720338625654 H 0.0 **** 0.41
1864 O 38.13212279611385 30.8135851130644 19.347225606265184 O 0.0 **** -0.82
1865 H 38.71377250291756 30.460849026473525 18.59800768637517 H 0.0 **** 0.41
1866 H 37.574248027130174 31.547661437159608 18.939706561360907 H 0.0 **** 0.41
1867 O 16.623077295424796 0.9372226172858191 9.091823378967135 O 0.0 **** -0.82
1868 H 15.922556538192833 1.154049738252013 9.756243410588954 H 0.0 **** 0.41
1869 H 17.359994087412154 1.6201923256367436 9.271004698433803 H 0.0 **** 0.41
1870 O 44.07117444474161 45.078125448155625 10.21685786004653 O 0.0 **** -0.82
1871 H 44.476175144320976 45.95157878249066 9.988217449709447 H 0.0 **** 0.41
1872 H 44.42612102411423 44.38979880917831 9.558200365979925 H 0.0 **** 0.41
1873 O 3.290329390911687 48.596226873332675 8.892688262197161 O 0.0 **** -0.82
1874 H 2.435932072768388 48.44895541386286 9.372542598805829 H 0.0 **** 0.41
1875 H 3.4420834186385463 49.63890266915042 9.016266276977504 H 0.0 **** 0.41
1876 O 12.570909840199176 13.434520235317208 36.60891945578576 O 0.0 **** -0.82
1877 H 12.51575227711655 13.383350924891872 35.62192559525838 H 0.0 **** 0.41
1878 H 13.151169563096074 14.254423189533213 36.82592887482579 H 0.0 **** 0.41
1879 O 38.242186174263935 29.081224911771187 29.985361604205938 O 0.0 **** -0.82
1880 H 38.964823849354126 29.143281634243777 29.2969260098471 H 0.0 **** 0.41
1881 H 38.86138403341604 29.02484345694748 30.84851785279448 H 0.0 **** 0.41
1882 O 1.3600359841627694 2.096447094810472 45.48513728752574 O 0.0 **** -0.82
1883 H 0.7503090614746192 2.7166944881376267 46.020164139202485 H 0.0 **** 0.41
1884 H 1.277520918984008 1.1230945737704232 45.699821109200336 H 0.0 **** 0.41
1885 O 49.25468123483924 27.195990936544785 48.60159523168456 O 0.0 **** -0.82
1886 H 49.55453911878661 26.429145309424097 49.236987613149964 H 0.0 **** 0.41
1887 H 49.475096777925714 28.096585857896446 48.92600955850205 H 0.0 **** 0.41
1888 O 24.6413415538834 12.347000166730382 10.698606127897133 O 0.0 **** -0.82
1889 H 24.893494361045462 11.949868106058716 9.790037657469448 H 0.0 **** 0.41
1890 H 25.46264731632066 12.037911182945862 11.208170506511308 H 0.0 **** 0.41
1891 O 38.3695411115338 12.247669970592739 11.392763962901036 O 0.0 **** -0.82
1892 H 37.81392471868788 11.635176298851142 10.76892168740158 H 0.0 **** 0.41
1893 H 38.1111296354152 12.082773414634367 12.362078474138444 H 0.0 **** 0.41
1894 O 41.244533913579076 42.57498357391516 23.440189562885834 O 0.0 **** -0.82
1895 H 41.80098729246703 43.21493568980532 22.92351956229353 H 0.0 **** 0.41
1896 H 41.58209383002058 42.677477617825396 24.337455396187032 H 0.0 **** 0.41
1897 O 1.9732951010256172 37.72863074583435 4.591743000103946 O 0.0 **** -0.82
1898 H 1.3469422306920713 37.19873475347856 5.19672807892006 H 0.0 **** 0.41
1899 H 1.6686054881727768 38.71309977907583 4.361882794517072 H 0.0 **** 0.41
1900 O 16.76431785925346 42.41061655519505 10.97920099629819 O 0.0 **** -0.82
1901 H 16.648985585306942 42.51144930192986 11.958332879419658 H 0.0 **** 0.41
1902 H 17.035435649091607 43.347517532611604 10.64969538290947 H 0.0 **** 0.41
1903 O 44.946116096654805 4.679023422609697 15.757136186252394 O 0.0 **** -0.82
1904 H 44.94053289439843 4.470142737648228 16.719257798964396 H 0.0 **** 0.41
1905 H 44.44790890295733 5.534333050319663 15.580059480937475 H 0.0 **** 0.41
1906 O 25.801407586423892 12.933717341670418 19.51959837124812 O 0.0 **** -0.82
1907 H 26.566444986846196 12.326158497008324 19.529174785558197 H 0.0 **** 0.41
1908 H 25.313797768448108 12.946613312575133 20.424919133092757 H 0.0 **** 0.41
1909 O 32.30063379309034 25.411301988993365 4.894251056808649 O 0.0 **** -0.82
1910 H 33.152560346008116 24.948407472427093 4.639682486151216 H 0.0 **** 0.41
1911 H 31.86213216120501 24.882521175976716 5.63225617844914 H 0.0 **** 0.41
1912 O 45.098232556717996 9.969980937194155 42.12498630543102 O 0.0 **** -0.82
1913 H 44.84757843439492 10.599120732813123 41.344959454534816 H 0.0 **** 0.41
1914 H 46.14714019637834 9.9463364879017 42.17082844794226 H 0.0 **** 0.41
1915 O 40.08939713184296 37.83210578102055 35.75384915406423 O 0.0 **** -0.82
1916 H 40.29393070350307 37.0529652935625 36.384160930198796 H 0.0 **** 0.41
1917 H 40.95170314003712 37.769111871988954 35.24377714226297 H 0.0 **** 0.41
1918 O 48.31630416656711 9.950820472303267 14.493743490610996 O 0.0 **** -0.82
1919 H 47.43349509473546 10.41211288515868 14.824310600173964 H 0.0 **** 0.41
1920 H 47.920830893241124 9.028235627896997 14.518679425455318 H 0.0 **** 0.41
1921 O 49.357912781309224 22.55257660014889 4.5768720903469315 O 0.0 **** -0.82
1922 H 49.266317351087885 22.25335790198714 5.534593888917968 H 0.0 **** 0.41
1923 H 48.852173083665946 23.438190032360126 4.50876124282577 H 0.0 **** 0.41
1924 O 18.42724931565263 28.13858646542341 10.58424379435617 O 0.0 **** -0.82
1925 H 18.026924568374866 28.439639816781657 11.453824063524259 H 0.0 **** 0.41
1926 H 19.38949203600255 28.183631306905415 10.89249437219594 H 0.0 **** 0.41
1927 O 13.87437069046368 23.674379578598145 45.22115623442725 O 0.0 **** -0.82
1928 H 14.406226020964727 23.229690204332428 45.96067322334712 H 0.0 **** 0.41
1929 H 13.634753119952784 24.555015622363438 45.68838133502625 H 0.0 **** 0.41
1930 O 49.79057928012855 38.34890565901982 47.5011349107785 O 0.0 **** -0.82
1931 H 49.348465507936645 37.99319587490503 48.36830246287633 H 0.0 **** 0.41
1932 H 50.3175466248392 37.512589845047984 47.27689519562371 H 0.0 **** 0.41
1933 O 0.541483362579811 32.79421167319578 44.67223777811071 O 0.0 **** -0.82
1934 H -0.1914043771599907 33.29751326602349 45.15991303601818 H 0.0 **** 0.41
1935 H 0.012747384716774945 32.082426241758505 44.243819576495106 H 0.0 **** 0.41
1936 O 44.5937657356814 41.14666816083019 30.220925237680902 O 0.0 **** -0.82
1937 H 43.661994385326004 41.28184369782666 29.8905821254272 H 0.0 **** 0.41
1938 H 45.029882516476 40.45020586960985 29.57531298356131 H 0.0 **** 0.41
1939 O 36.169369726808476 2.797118951284411 27.425021098069326 O 0.0 **** -0.82
1940 H 36.04041485523093 3.337878772894871 28.249688017822006 H 0.0 **** 0.41
1941 H 36.454843867758896 3.5693066300897556 26.843850162310076 H 0.0 **** 0.41
1942 O 24.013462660938643 21.282348688429344 39.79384262992042 O 0.0 **** -0.82
1943 H 24.111055609811896 22.197075495262737 39.32507810317316 H 0.0 **** 0.41
1944 H 24.770719203158414 21.185029151647843 40.473242074057 H 0.0 **** 0.41
1945 O 39.972394223349625 13.645904986761863 32.30386485863009 O 0.0 **** -0.82
1946 H 40.516172893448015 13.290286586159434 33.04556549815573 H 0.0 **** 0.41
1947 H 40.31497735038788 14.57266628120519 32.13532021845082 H 0.0 **** 0.41
1948 O 25.37265727389098 3.3630611443837024 38.82213590373112 O 0.0 **** -0.82
1949 H 26.244284709155878 2.850691225367134 38.7779601608672 H 0.0 **** 0.41
1950 H 24.63945464201673 2.754044150728496 39.0851773078158 H 0.0 **** 0.41
1951 O 47.06283507456718 15.21192710038872 3.181154334231536 O 0.0 **** -0.82
1952 H 47.31841245275556 14.358138468917033 3.6911689782324117 H 0.0 **** 0.41
1953 H 47.93132298279259 15.806375220477705 3.1019572574213754 H 0.0 **** 0.41
1954 O 24.14438624567965 8.923365655522332 11.031819455887495 O 0.0 **** -0.82
1955 H 24.65483690268635 8.70162629161473 10.140497463753336 H 0.0 **** 0.41
1956 H 23.527811318776052 9.709217692664012 10.790090121197759 H 0.0 **** 0.41
1957 O 15.233212716471755 10.155648493197141 18.114865303779 O 0.0 **** -0.82
1958 H 15.18305262751921 9.750271718873535 17.14944702696096 H 0.0 **** 0.41
1959 H 14.280722545249027 10.632503188460817 18.174855005995898 H 0.0 **** 0.41
1960 O 26.489228923951487 34.64472335911005 46.1864978255324 O 0.0 **** -0.82
1961 H 26.441675997393958 35.40470988313579 46.87746003865436 H 0.0 **** 0.41
1962 H 26.22362032379256 35.03700827768139 45.263292523126324 H 0.0 **** 0.41
1963 O 3.58525484617608 48.44746671093852 44.66639225656607 O 0.0 **** -0.82
1964 H 3.0913981644213884 48.07388067970903 43.885973713740164 H 0.0 **** 0.41
1965 H 3.9934325056031685 47.70273872451661 45.26950682422396 H 0.0 **** 0.41
1966 O 32.6934492558816 36.236314939215845 3.9716369151860005 O 0.0 **** -0.82
1967 H 33.30196645982744 35.49458022006978 3.6652398586690746 H 0.0 **** 0.41
1968 H 32.128340299948846 35.8429187760659 4.712066518348583 H 0.0 **** 0.41
1969 O 32.096599171703076 42.58598620352316 45.79571992588763 O 0.0 **** -0.82
1970 H 32.58659929120626 43.352589001392666 45.37946371983058 H 0.0 **** 0.41
1971 H 32.84625337860024 41.939002117338276 45.8958585093176 H 0.0 **** 0.41
1972 O 34.198940466558014 20.32293588452731 33.101455459441866 O 0.0 **** -0.82
1973 H 34.16924499161556 20.27465463945866 34.10254702204131 H 0.0 **** 0.41
1974 H 35.00580272685144 20.95724334493599 32.87061414933365 H 0.0 **** 0.41
1975 O 18.653817378068 43.51685475214874 33.32815223924353 O 0.0 **** -0.82
1976 H 18.86535520540879 42.541723456020165 33.589527360518936 H 0.0 **** 0.41
1977 H 19.29227423733886 44.11126403875207 33.86063235131696 H 0.0 **** 0.41
1978 O 28.9900378607417 44.226375581957264 20.260504623929762 O 0.0 **** -0.82
1979 H 28.882452368012828 44.206213780673195 19.231391212484873 H 0.0 **** 0.41
1980 H 28.08475165387957 43.96444671195808 20.68567919323928 H 0.0 **** 0.41
1981 O 19.79303399380383 10.213164895064807 35.45137752702533 O 0.0 **** -0.82
1982 H 19.341262261920683 9.58902963544972 36.047994524088715 H 0.0 **** 0.41
1983 H 19.0125068130131 10.877967434759888 35.20626868936715 H 0.0 **** 0.41
1984 O 43.55944295928347 10.174754116354435 44.51943921555224 O 0.0 **** -0.82
1985 H 44.1037915102285 9.930662408409937 43.715989437719834 H 0.0 **** 0.41
1986 H 43.609238373359034 9.353649435034413 45.10226957874183 H 0.0 **** 0.41
1987 O 41.856073427527214 15.636530180096734 6.429146986395864 O 0.0 **** -0.82
1988 H 41.100250319711826 16.100096320447783 5.966494528371911 H 0.0 **** 0.41
1989 H 41.37874509608784 15.104581506469131 7.172931439390538 H 0.0 **** 0.41
1990 O 32.626581502048026 34.020855217490634 7.756761308218401 O 0.0 **** -0.82
1991 H 31.92040149859167 34.18955733065675 8.425352323279123 H 0.0 **** 0.41
1992 H 32.69277224852463 32.970781253423226 7.6804303196892745 H 0.0 **** 0.41
1993 O 21.310386529530078 9.71016223260604 47.94532779072919 O 0.0 **** -0.82
1994 H 22.148114547409534 9.137336947306865 48.145341844547275 H 0.0 **** 0.41
1995 H 21.722775904029476 10.65594776610803 47.76679812306707 H 0.0 **** 0.41
1996 O 18.473452636733114 30.490071007153347 25.421147860778788 O 0.0 **** -0.82
1997 H 18.88805627389345 30.91722064784111 24.55504208775693 H 0.0 **** 0.41
1998 H 17.78615174281798 31.23971750590989 25.625249972151707 H 0.0 **** 0.41
1999 O 43.54513233860488 5.283681157998927 39.83435451253343 O 0.0 **** -0.82
2000 H 44.53521990204354 5.37010430509266 39.841319327861314 H 0.0 **** 0.41
2001 H 43.32275550293393 5.697116494583831 38.93459863557171 H 0.0 **** 0.41
2002 O 45.49837874541627 13.403651714784857 22.926098985915075 O 0.0 **** -0.82
2003 H 44.70817224312973 13.786224576185163 23.546610279349895 H 0.0 **** 0.41
2004 H 46.39629487088137 13.703191703935348 23.279631570171187 H 0.0 **** 0.41
2005 O 1.0410390929800117 16.103875126518314 26.18212047879185 O 0.0 **** -0.82
2006 H 0.5477478544921672 15.65929759931059 26.94991886835344 H 0.0 **** 0.41
2007 H 0.2907723810057723 16.47092964278838 25.646887205478496 H 0.0 **** 0.41
2008 O 18.793358762063285 1.1439290385363052 48.844582918947495 O 0.0 **** -0.82
2009 H 19.34595399335026 1.9574476096939128 48.7351923377366 H 0.0 **** 0.41
2010 H 19.228942434302315 0.4557210906010583 48.22618936787176 H 0.0 **** 0.41
2011 O 18.781284811268364 1.0859410711203419 43.10748543805093 O 0.0 **** -0.82
2012 H 18.520445626652712 0.5739760775869048 43.89624502062558 H 0.0 **** 0.41
2013 H 18.0338838933601 0.9405840299566296 42.417545489505656 H 0.0 **** 0.41
2014 O 12.611209092737514 41.2672800230285 21.793638301968485 O 0.0 **** -0.82
2015 H 11.989950793062553 40.4686541542159 21.776935335932734 H 0.0 **** 0.41
2016 H 12.079142382260375 41.9665625546355 22.22683759674588 H 0.0 **** 0.41
2017 O 26.796438221446838 38.93605402297211 23.01078742893084 O 0.0 **** -0.82
2018 H 26.92727501693299 39.539709099743185 23.839643776732487 H 0.0 **** 0.41
2019 H 25.808747649856254 38.64330580763125 22.974895753243572 H 0.0 **** 0.41
2020 O 22.829308219237575 2.3654559297407207 21.7629261602131 O 0.0 **** -0.82
2021 H 22.875052375511785 3.32482260169114 22.128356353605483 H 0.0 **** 0.41
2022 H 23.519234479619968 2.1106080480974745 21.089811804443144 H 0.0 **** 0.41
2023 O 4.890969990875285 1.2988079196621627 22.118605363467776 O 0.0 **** -0.82
2024 H 4.999406038036405 0.3832147147704502 22.594356635735593 H 0.0 **** 0.41
2025 H 4.316309505739989 1.8926220867144077 22.759894229224052 H 0.0 **** 0.41
2026 O 44.920700358847746 21.430129789253897 25.712608293908705 O 0.0 **** -0.82
2027 H 43.93156439475095 21.230364012198024 25.72935739470052 H 0.0 **** 0.41
2028 H 45.027476824333114 22.385000953297492 26.12982593549176 H 0.0 **** 0.41
2029 O 40.427001062825106 11.937544347511844 28.695748416635354 O 0.0 **** -0.82
2030 H 41.31120800019983 11.454687178254881 28.841517326002272 H 0.0 **** 0.41
2031 H 40.6617724177907 12.885464709597601 28.326058305869793 H 0.0 **** 0.41
2032 O 4.829908897499344 1.0529041212548091 44.314740436333146 O 0.0 **** -0.82
2033 H 5.449847854932159 1.3195597042440883 45.08825815692758 H 0.0 **** 0.41
2034 H 4.613050362574363 0.05241445496954043 44.31695708415813 H 0.0 **** 0.41
2035 O 43.442157244192124 36.87233876345813 48.07935800822627 O 0.0 **** -0.82
2036 H 42.978427221715286 36.58948920303905 48.94957098035857 H 0.0 **** 0.41
2037 H 44.003005092175094 36.081754100350466 47.83473504462013 H 0.0 **** 0.41
2038 O 4.838940079810177 41.357093692265046 23.18857839378436 O 0.0 **** -0.82
2039 H 4.206995565258435 42.02058730578891 23.66241138144778 H 0.0 **** 0.41
2040 H 4.567789519429374 41.44079839377061 22.20763963422022 H 0.0 **** 0.41
2041 O 16.540620411112762 29.11267338001477 33.549000478306496 O 0.0 **** -0.82
2042 H 17.509014946226397 29.265084542661697 33.862686549695276 H 0.0 **** 0.41
2043 H 15.999671574280232 29.522070259822314 34.272448145712765 H 0.0 **** 0.41
2044 O 44.98873633872857 47.696227510907484 49.501041145049854 O 0.0 **** -0.82
2045 H 45.782832677859645 47.72336795850515 48.888536049953444 H 0.0 **** 0.41
2046 H 44.92524649704218 46.78563516937887 49.923135868711604 H 0.0 **** 0.41
2047 O 32.58372884936177 25.326249983563418 46.88274665977312 O 0.0 **** -0.82
2048 H 33.51111971475676 25.769530210719118 46.935778335738846 H 0.0 **** 0.41
2049 H 32.05222187813503 25.828523305641706 46.1138544684022 H 0.0 **** 0.41
2050 O 49.70714263962242 22.72159358806684 30.194206811829286 O 0.0 **** -0.82
2051 H 50.23992238275804 23.50211994135526 30.013101110754008 H 0.0 **** 0.41
2052 H 48.79111133463038 23.130985166315867 30.340618636936085 H 0.0 **** 0.41
2053 O 31.27911868333056 9.221774793777854 13.025021051459262 O 0.0 **** -0.82
2054 H 31.463746983558327 9.4620159548721 12.062807087885192 H 0.0 **** 0.41
2055 H 31.598026313393657 8.267695783915002 13.174579419062892 H 0.0 **** 0.41
2056 O 16.10819374761948 33.366343752584655 31.678380615803253 O 0.0 **** -0.82
2057 H 16.81467966476599 32.73500724825801 32.03580725166304 H 0.0 **** 0.41
2058 H 15.152179411848607 33.151573939755465 31.983922608786465 H 0.0 **** 0.41
2059 O 41.376939306030515 27.09426250493392 48.98597853730352 O 0.0 **** -0.82
2060 H 41.32279369622305 26.337408911534432 49.621456334600595 H 0.0 **** 0.41
2061 H 40.57052317760837 26.863491617840104 48.35401229401283 H 0.0 **** 0.41
2062 O 16.565403835655527 44.98571821510084 34.55824199389051 O 0.0 **** -0.82
2063 H 15.656815920400408 45.44017647973963 34.37067405046799 H 0.0 **** 0.41
2064 H 16.990328624765652 44.7592686481766 33.658249437177034 H 0.0 **** 0.41
2065 O 43.629231561104554 25.2768236787942 16.563314313024676 O 0.0 **** -0.82
2066 H 44.196116242040084 25.997593790914035 16.144995739245886 H 0.0 **** 0.41
2067 H 42.667517539866544 25.501433051705753 16.272904120776104 H 0.0 **** 0.41
2068 O 18.05728794795914 21.24728840730638 25.875235691281418 O 0.0 **** -0.82
2069 H 18.5685728354409 20.53563161853169 26.34962311637075 H 0.0 **** 0.41
2070 H 17.158048136398666 21.10956143260307 26.29750371318704 H 0.0 **** 0.41
2071 O 48.064867149331455 23.353390222016206 46.952580549592795 O 0.0 **** -0.82
2072 H 48.372593461407135 22.551280066961002 46.423062230843485 H 0.0 **** 0.41
2073 H 47.43501694800514 23.742107388767277 46.30229989945041 H 0.0 **** 0.41
2074 O 17.34337413626882 49.436957536815164 37.37969456348773 O 0.0 **** -0.82
2075 H 17.526504416376923 50.27529270397604 36.8292013741869 H 0.0 **** 0.41
2076 H 16.561767551150936 49.680417722648116 37.99191175924323 H 0.0 **** 0.41
2077 O 26.5131167614679 7.492824499785945 31.041371549890997 O 0.0 **** -0.82
2078 H 26.035908714029002 7.8166516556288 31.878934041374503 H 0.0 **** 0.41
2079 H 25.93718026497316 6.75512073619388 30.639267850254633 H 0.0 **** 0.41
2080 O 1.7692121841920851 47.400821345711584 23.348144448177088 O 0.0 **** -0.82
2081 H 2.5715518006145075 46.97742810512423 22.762861110415475 H 0.0 **** 0.41
2082 H 0.8658342513081649 46.98412380976178 23.09201460127978 H 0.0 **** 0.41
2083 O 21.64749180374752 25.317750673897898 31.25057031111392 O 0.0 **** -0.82
2084 H 22.396191436008426 24.653144560742355 31.061492185683136 H 0.0 **** 0.41
2085 H 21.64613135193722 26.048130474487948 30.57556818164153 H 0.0 **** 0.41
2086 O 12.815513560686377 46.95808345514021 45.47910977261322 O 0.0 **** -0.82
2087 H 11.929203538411329 46.51963673009798 45.78751653606185 H 0.0 **** 0.41
2088 H 13.221041705963202 46.307292694821875 44.93284419407278 H 0.0 **** 0.41
2089 O 3.541514043866736 32.677737578550264 16.598106922069867 O 0.0 **** -0.82
2090 H 3.2157065138084295 32.014625863407055 17.336625043261435 H 0.0 **** 0.41
2091 H 4.609924639309133 32.700925003327974 16.622711047603133 H 0.0 **** 0.41
2092 O 12.057081142824533 3.8462445924168756 15.0246001838496 O 0.0 **** -0.82
2093 H 11.497711486445521 4.118766314247517 15.835677512681073 H 0.0 **** 0.41
2094 H 12.178879682294808 2.8105503462856007 15.015373638309839 H 0.0 **** 0.41
2095 O 44.88361191351527 30.138707739673524 31.965756398480632 O 0.0 **** -0.82
2096 H 45.00336170586757 29.730549759904612 32.83908460122286 H 0.0 **** 0.41
2097 H 45.72695788767 29.93231291243913 31.46436629205122 H 0.0 **** 0.41
2098 O 42.69400676096253 11.199477304916433 13.25616965663957 O 0.0 **** -0.82
2099 H 43.377283999622406 11.322011463382156 12.459594844808196 H 0.0 **** 0.41
2100 H 42.132952922987066 12.022289817883832 13.258370509083532 H 0.0 **** 0.41
2101 O 34.53315078612672 25.866742311014054 26.476638898655498 O 0.0 **** -0.82
2102 H 35.00336191931482 25.598746140387373 25.59152232048119 H 0.0 **** 0.41
2103 H 33.58587995146419 25.958132696367045 26.27716112732933 H 0.0 **** 0.41
2104 O 44.19531809709981 42.160479404735156 1.61314692322961 O 0.0 **** -0.82
2105 H 45.181201219926635 42.030777223270526 1.8447270541732912 H 0.0 **** 0.41
2106 H 43.677688814393264 42.12373142142691 2.4667924385487563 H 0.0 **** 0.41
2107 O 15.540138178852521 27.45798155789035 45.236832935823905 O 0.0 **** -0.82
2108 H 16.22359061299532 28.13455232422828 44.90864124941893 H 0.0 **** 0.41
2109 H 14.898083235961778 27.174715795922147 44.510579093305225 H 0.0 **** 0.41
2110 O 23.28669485055455 17.46968403920458 3.3849638080060416 O 0.0 **** -0.82
2111 H 22.737902723093043 18.286096281359903 3.1145337436625766 H 0.0 **** 0.41
2112 H 24.187768272618616 17.90076739107724 3.6929104823410697 H 0.0 **** 0.41
2113 O 22.35042777560891 43.52918792359691 47.04904400269616 O 0.0 **** -0.82
2114 H 21.796858558830237 42.81244589494978 47.49189542221905 H 0.0 **** 0.41
2115 H 22.701008499833982 44.21852345701275 47.7413571408415 H 0.0 **** 0.41
2116 O 40.834259954892076 5.655010058972587 15.52557563874406 O 0.0 **** -0.82
2117 H 41.26320102744304 5.01159801198372 14.826922451864137 H 0.0 **** 0.41
2118 H 40.30493605372993 5.040739008271165 16.1201939402517 H 0.0 **** 0.41
2119 O 9.80587929732741 43.30658168653474 48.690167547070786 O 0.0 **** -0.82
2120 H 10.590441584056602 43.93095472884124 48.40111071169866 H 0.0 **** 0.41
2121 H 9.894095439137349 42.52876259541851 48.07533629438687 H 0.0 **** 0.41
2122 O 25.82327829006422 33.866743625155415 34.25895531301723 O 0.0 **** -0.82
2123 H 25.395793193593 34.47662671862423 34.981912999227376 H 0.0 **** 0.41
2124 H 24.992831826893916 33.55356644306974 33.70785143212648 H 0.0 **** 0.41
2125 O 46.60837710203071 41.173841974014714 20.33066338246614 O 0.0 **** -0.82
2126 H 46.2449260890176 41.11344135300843 19.4158559802591 H 0.0 **** 0.41
2127 H 47.61378614894902 41.42916346542623 20.237425065858936 H 0.0 **** 0.41
2128 O 9.337363287290472 27.06880758707159 44.273245792729554 O 0.0 **** -0.82
2129 H 8.527300553226652 27.344064302211592 44.84640219048117 H 0.0 **** 0.41
2130 H 9.301471595091698 27.56320045306029 43.39745802707678 H 0.0 **** 0.41
2131 O 20.031987831080702 48.185270782735344 22.89780771875789 O 0.0 **** -0.82
2132 H 19.510094046413037 47.48745797302248 22.40197717764812 H 0.0 **** 0.41
2133 H 20.25774759208639 47.82601241685478 23.84072038532868 H 0.0 **** 0.41
2134 O 36.22832911328575 33.00163408475973 43.65296770419065 O 0.0 **** -0.82
2135 H 35.40629238267366 32.78821537504643 43.07924017004398 H 0.0 **** 0.41
2136 H 35.812343170289864 33.17707058598461 44.62252185761951 H 0.0 **** 0.41
2137 O 4.349504622997319 27.851762542526647 25.951504292230076 O 0.0 **** -0.82
2138 H 5.342435571258287 27.910263395078946 26.14061244602314 H 0.0 **** 0.41
2139 H 3.942681406171645 28.57910036756677 26.462183515065508 H 0.0 **** 0.41
2140 O 42.88890222385416 14.307447578858117 41.03720882150509 O 0.0 **** -0.82
2141 H 42.03231873556886 14.215713163268646 41.55847661486182 H 0.0 **** 0.41
2142 H 43.40240670522573 15.070139869985738 41.47908085672311 H 0.0 **** 0.41
2143 O 37.536070390505664 33.88013994010235 5.3348470985996315 O 0.0 **** -0.82
2144 H 36.672643580977024 33.861451255363264 5.8187601265306625 H 0.0 **** 0.41
2145 H 38.17760208053121 33.66341085772413 6.064247954476073 H 0.0 **** 0.41
2146 O 19.062572646715495 35.137380933288505 1.3676061907942605 O 0.0 **** -0.82
2147 H 19.868544285293765 35.614317778978624 1.88061985899281 H 0.0 **** 0.41
2148 H 19.150116311896568 35.299938967826265 0.36037564662488497 H 0.0 **** 0.41
2149 O 2.739226650938413 23.716421450677892 5.314686563812998 O 0.0 **** -0.82
2150 H 2.7362909196167777 23.813278943322874 6.28426689900504 H 0.0 **** 0.41
2151 H 3.704589789624933 24.025232430698097 5.0926729597731395 H 0.0 **** 0.41
2152 O 15.499348105796322 7.590723944395736 46.66383510535882 O 0.0 **** -0.82
2153 H 15.276715287104686 6.893043938096919 47.349803559428246 H 0.0 **** 0.41
2154 H 15.317342768145883 8.50191462033808 47.03113838298902 H 0.0 **** 0.41
2155 O 21.92972477850094 41.52851520549313 32.18617225700705 O 0.0 **** -0.82
2156 H 21.191194641475292 41.77327275128425 31.479074070538402 H 0.0 **** 0.41
2157 H 21.6869062256106 40.7213848245098 32.677687809110395 H 0.0 **** 0.41
2158 O 43.76521988277933 9.418583929311708 23.959464160888174 O 0.0 **** -0.82
2159 H 42.89571965820687 9.868351905226206 24.25598935756932 H 0.0 **** 0.41
2160 H 43.692038744811676 9.45209733398221 22.89528596042345 H 0.0 **** 0.41
2161 O 10.782902045616076 27.246878325834164 1.8400938026846763 O 0.0 **** -0.82
2162 H 10.864546619926962 26.231388512875625 1.667419363693588 H 0.0 **** 0.41
2163 H 11.573116525132875 27.814801256997264 1.5761083697125262 H 0.0 **** 0.41
2164 O 38.21733212141691 49.486139613964546 36.88821787781645 O 0.0 **** -0.82
2165 H 37.398627736173076 48.88562244271669 36.8554801694469 H 0.0 **** 0.41
2166 H 38.93309542084588 48.87157370989852 36.55566149751374 H 0.0 **** 0.41
2167 O 49.12767962789569 45.6520670711325 2.2691612821702805 O 0.0 **** -0.82
2168 H 49.69434534382643 46.48312298840594 2.579085464829972 H 0.0 **** 0.41
2169 H 49.41527572746281 44.8687622811262 2.7906678568307535 H 0.0 **** 0.41
2170 O 19.64931549608085 32.33345723352324 36.61477912205907 O 0.0 **** -0.82
2171 H 19.854843201135637 31.67450025173911 37.33216605865921 H 0.0 **** 0.41
2172 H 20.463582816802088 32.35538218031906 36.00267190366703 H 0.0 **** 0.41
2173 O 42.94743933827556 17.11529397321066 21.538419592299764 O 0.0 **** -0.82
2174 H 43.54750418094038 16.301013419277677 21.67120044038207 H 0.0 **** 0.41
2175 H 42.62380973137202 17.17041900092427 22.492578459819597 H 0.0 **** 0.41
2176 O 21.24655389140928 23.482272654764575 48.80676943050884 O 0.0 **** -0.82
2177 H 20.48922605550196 23.968854081700606 49.21920954077129 H 0.0 **** 0.41
2178 H 20.751461425954126 22.79038423018515 48.2661564193164 H 0.0 **** 0.41
2179 O 5.698417084344115 12.600819026754735 42.88503547557563 O 0.0 **** -0.82
2180 H 4.945345489829535 12.272294186778808 42.27535265409162 H 0.0 **** 0.41
2181 H 6.365819313960195 13.030943036782325 42.25110433338147 H 0.0 **** 0.41
2182 O 40.37519524933631 25.481070856736576 29.952965917215153 O 0.0 **** -0.82
2183 H 39.754698338252766 25.04263650699102 30.62672944277819 H 0.0 **** 0.41
2184 H 40.698736434008076 26.353652477663655 30.30492757122517 H 0.0 **** 0.41
2185 O 14.67159131597404 48.44671605984949 49.905407075536566 O 0.0 **** -0.82
2186 H 14.577132030584718 49.37569117608709 50.2023950466853 H 0.0 **** 0.41
2187 H 14.666677094118219 48.49601113988834 48.85404818023048 H 0.0 **** 0.41
2188 O 16.842370363495682 33.91730357188687 45.710698173510345 O 0.0 **** -0.82
2189 H 16.125340776151308 33.60185293505354 45.08644355312115 H 0.0 **** 0.41
2190 H 16.706553802221613 34.88930005406183 46.000078739354976 H 0.0 **** 0.41
2191 O 27.466511877905436 43.3896794512718 36.352400683878784 O 0.0 **** -0.82
2192 H 26.798810386786258 43.63033121289472 37.05624888941533 H 0.0 **** 0.41
2193 H 28.239335116706243 43.08221451576275 37.000715059437624 H 0.0 **** 0.41
2194 O 1.504420772386709 40.439932594386526 31.76372387131584 O 0.0 **** -0.82
2195 H 1.6134652810665813 39.50378071442 32.280495457090645 H 0.0 **** 0.41
2196 H 1.9933518205077405 41.160522798019635 32.239316720564936 H 0.0 **** 0.41
2197 O 21.04753807640965 41.66098119656464 48.477648608190755 O 0.0 **** -0.82
2198 H 20.473298651430568 41.742190974549295 49.303852876770556 H 0.0 **** 0.41
2199 H 21.799072704877233 41.13871279783843 48.887878465273666 H 0.0 **** 0.41
2200 O 34.275048063899966 33.80018696062079 40.08820237990377 O 0.0 **** -0.82
2201 H 33.539294726775246 33.68928675888753 39.46609683296993 H 0.0 **** 0.41
2202 H 34.46339584366103 34.786984280295535 39.98137714572543 H 0.0 **** 0.41
2203 O 45.91552265126539 9.158083025225567 25.579523838480625 O 0.0 **** -0.82
2204 H 45.95717249494029 9.945795843369368 26.219574103513935 H 0.0 **** 0.41
2205 H 45.07148988783306 9.29110028765501 24.991949996609122 H 0.0 **** 0.41
2206 O 14.129244571598315 45.41465769122802 32.84510929159089 O 0.0 **** -0.82
2207 H 13.330198843807018 45.99672773054075 33.218153297900955 H 0.0 **** 0.41
2208 H 14.185225455571336 45.676366658618726 31.906669235439757 H 0.0 **** 0.41
2209 O 44.10349186874624 9.82373419355331 31.039823995315405 O 0.0 **** -0.82
2210 H 44.964009836100416 10.39523582687046 31.2277590421244 H 0.0 **** 0.41
2211 H 43.80913920655225 10.022340766687707 30.08160597451265 H 0.0 **** 0.41
2212 O 6.370041906720928 37.088928766489246 15.484269376965111 O 0.0 **** -0.82
2213 H 6.223519438871051 37.23457641173159 14.438356258018496 H 0.0 **** 0.41
2214 H 5.72173490529272 36.360022157387355 15.640866998915811 H 0.0 **** 0.41
2215 O 35.855946270442786 7.285651059639639 40.54706241912319 O 0.0 **** -0.82
2216 H 35.470918170859065 7.8220494100726095 39.81448010512948 H 0.0 **** 0.41
2217 H 36.84446501509373 7.149723583569981 40.24364960841052 H 0.0 **** 0.41
2218 O 36.21767187866502 18.41981418197504 13.390398731220188 O 0.0 **** -0.82
2219 H 37.07031762779017 18.248011491257948 12.873691090495981 H 0.0 **** 0.41
2220 H 35.53250812873201 18.643268953283503 12.62434751520047 H 0.0 **** 0.41
2221 O 13.0699493206016 42.21765649625407 40.911528359873444 O 0.0 **** -0.82
2222 H 12.738709881396264 41.9472972981755 39.96057108163036 H 0.0 **** 0.41
2223 H 12.16653508220568 42.33544334087986 41.38935780209688 H 0.0 **** 0.41
2224 O 34.02165601400471 5.480107563724753 20.165062005344364 O 0.0 **** -0.82
2225 H 34.74996541337785 5.072545010001303 20.82707449720837 H 0.0 **** 0.41
2226 H 33.29874547026375 5.879763483477918 20.706738388247373 H 0.0 **** 0.41
2227 O 20.43950861936514 34.73072066614749 33.292301090552996 O 0.0 **** -0.82
2228 H 21.35619378009151 34.42484120125891 33.0769274723728 H 0.0 **** 0.41
2229 H 19.7141509613977 34.033047814180215 33.190936460230226 H 0.0 **** 0.41
2230 O 4.606690851922012 26.383996128931987 41.50069561677043 O 0.0 **** -0.82
2231 H 4.577623792367605 27.230444155077453 40.90822143901024 H 0.0 **** 0.41
2232 H 3.867112976574356 26.502607219360563 42.16484207655924 H 0.0 **** 0.41
2233 O 31.653320499207886 25.614016034946108 17.60546902007254 O 0.0 **** -0.82
2234 H 31.345094228718814 26.308111624752264 16.918577839820195 H 0.0 **** 0.41
2235 H 31.083239541367888 25.706897769560122 18.41109781540981 H 0.0 **** 0.41
2236 O 46.53757563938341 11.075900325033341 27.31146370170182 O 0.0 **** -0.82
2237 H 47.094430542817605 11.61346931968983 26.58960625733986 H 0.0 **** 0.41
2238 H 47.142904045978796 11.14732276030898 28.158039444488406 H 0.0 **** 0.41
2239 O 14.972520825493461 12.752726553288742 44.365301417064295 O 0.0 **** -0.82
2240 H 14.604100600037178 13.548448937526471 44.86665198014413 H 0.0 **** 0.41
2241 H 15.963349411976594 13.022476903900014 44.267230367707015 H 0.0 **** 0.41
2242 O 44.233881066357526 12.418598254409357 26.927632221440163 O 0.0 **** -0.82
2243 H 44.235712387424826 13.012549988476756 26.140066887467274 H 0.0 **** 0.41
2244 H 45.09400813403179 11.820179894372849 26.87925210804304 H 0.0 **** 0.41
2245 O 3.684334963250259 40.01076916768744 16.00927131245551 O 0.0 **** -0.82
2246 H 4.371997674165501 40.14154159324144 15.296071431109098 H 0.0 **** 0.41
2247 H 4.113812291061472 39.630180984777326 16.819947034149678 H 0.0 **** 0.41
2248 O 48.12187177277382 20.426770951554634 27.639936542116573 O 0.0 **** -0.82
2249 H 47.86943321626454 20.189096855748193 26.666175614298865 H 0.0 **** 0.41
2250 H 49.098249242506384 20.662044024930033 27.58655588995022 H 0.0 **** 0.41
2251 O 28.589129175778506 28.061539888378235 6.661161208594107 O 0.0 **** -0.82
2252 H 29.459676647838137 27.47308134362097 6.752910140846743 H 0.0 **** 0.41
2253 H 28.37321264474325 28.40724352120958 7.627253804984159 H 0.0 **** 0.41
2254 O 43.69016260271091 6.402831371451989 0.8408767481576405 O 0.0 **** -0.82
2255 H 44.45699341816516 6.846026712413971 0.3472878074996686 H 0.0 **** 0.41
2256 H 43.666515894989345 6.934513508332799 1.7282770397527116 H 0.0 **** 0.41
2257 O 10.60571371380422 43.372625572271566 15.099339014655854 O 0.0 **** -0.82
2258 H 11.39827197451384 43.54402474836414 14.530097196227189 H 0.0 **** 0.41
2259 H 10.463376369280702 42.351758711120645 15.141792283105715 H 0.0 **** 0.41
2260 O 5.923234054742856 48.628743544704825 41.29656897907939 O 0.0 **** -0.82
2261 H 5.486694989874415 49.64737036013453 41.26930395532763 H 0.0 **** 0.41
2262 H 5.29572434697419 48.17164112418971 40.706351346522155 H 0.0 **** 0.41
2263 O 24.769160533293608 17.809337618430988 14.179300813329633 O 0.0 **** -0.82
2264 H 24.178205807397646 18.099959665742986 13.352647030530719 H 0.0 **** 0.41
2265 H 24.505692911554124 18.297945500182244 15.032294779212236 H 0.0 **** 0.41
2266 O 43.268550035301864 11.97808270011739 38.01575296449736 O 0.0 **** -0.82
2267 H 43.71518901445766 12.023078509260188 38.91625802892675 H 0.0 **** 0.41
2268 H 43.992403459687374 11.621159062012893 37.39980234017327 H 0.0 **** 0.41
2269 O 47.85041958202743 14.687028378690371 23.83932736431018 O 0.0 **** -0.82
2270 H 48.21590451062395 15.566906629700725 24.173125566099202 H 0.0 **** 0.41
2271 H 48.27174208797628 14.713367994203466 22.912356428180075 H 0.0 **** 0.41
2272 O 9.494446757622313 31.103806610771223 10.899659962894635 O 0.0 **** -0.82
2273 H 8.727340126426846 31.593016552093896 10.514200968648932 H 0.0 **** 0.41
2274 H 9.136496756626407 30.54731226417515 11.700718950650764 H 0.0 **** 0.41
2275 O 24.661965491641823 38.90649732203647 37.18064377400812 O 0.0 **** -0.82
2276 H 25.543556983803516 38.322772619889044 37.15451682590664 H 0.0 **** 0.41
2277 H 24.08578795583867 38.26825274832943 37.798191887732514 H 0.0 **** 0.41
2278 O 7.78801862883084 15.923103965348972 19.56764801428966 O 0.0 **** -0.82
2279 H 6.981599326399359 15.405540313603964 19.242734451799805 H 0.0 **** 0.41
2280 H 7.483645941529551 16.578336571806346 20.226239654377565 H 0.0 **** 0.41
2281 O 31.40223019188562 34.34022745708069 40.404580581566336 O 0.0 **** -0.82
2282 H 31.861925886420185 34.77163081025819 41.15851538113234 H 0.0 **** 0.41
2283 H 31.021903991355767 33.49600489703418 40.814398157232624 H 0.0 **** 0.41
2284 O 42.74384182089185 24.69103820846766 37.68307424418667 O 0.0 **** -0.82
2285 H 43.573003408605224 24.568889567551196 37.07279784754688 H 0.0 **** 0.41
2286 H 43.007938390241094 25.47165802548682 38.31625549074161 H 0.0 **** 0.41
2287 O 18.805491456540512 6.564887267877062 47.8236717469659 O 0.0 **** -0.82
2288 H 19.08398920172969 7.41558812922532 48.25441380436313 H 0.0 **** 0.41
2289 H 19.42667577613709 6.481173035444293 47.04568416503582 H 0.0 **** 0.41
2290 O 48.02682800358867 12.63389819819512 25.85275355821521 O 0.0 **** -0.82
2291 H 47.78404590042144 13.241942513150832 25.10822137526107 H 0.0 **** 0.41
2292 H 48.66022496292389 11.932358427795378 25.399186051350203 H 0.0 **** 0.41
2293 O 0.4187223877224608 45.05432481437443 7.492979163709535 O 0.0 **** -0.82
2294 H 1.086718700835111 45.307404307707735 8.193829575968195 H 0.0 **** 0.41
2295 H 0.6278048016709019 44.09930405951305 7.2562175051716835 H 0.0 **** 0.41
2296 O 6.680920142882002 26.959652886393556 29.518320426482642 O 0.0 **** -0.82
2297 H 6.037036392549439 27.628677724723346 29.805212880817653 H 0.0 **** 0.41
2298 H 6.534711138445388 26.702241387557137 28.50585495020132 H 0.0 **** 0.41
2299 O 35.421146229873166 25.411632065215883 1.1139578474625116 O 0.0 **** -0.82
2300 H 36.34374911259429 25.019178930407985 0.8205079590158341 H 0.0 **** 0.41
2301 H 34.88166801973753 24.66730936441538 1.5439984041186363 H 0.0 **** 0.41
2302 O 40.09403779142095 29.971055171507903 40.653472606044346 O 0.0 **** -0.82
2303 H 39.1705416875839 29.621296976036092 40.905526187180115 H 0.0 **** 0.41
2304 H 40.63716677839981 29.09287247276176 40.51490708819328 H 0.0 **** 0.41
2305 O 5.570903233268519 43.96897067764421 32.22680391523999 O 0.0 **** -0.82
2306 H 4.950743872184212 43.166662798877205 32.176657241848645 H 0.0 **** 0.41
2307 H 5.336265476160474 44.53738667973074 31.358405900411626 H 0.0 **** 0.41
2308 O 24.878236118058247 5.273711110916581 30.963833117680394 O 0.0 **** -0.82
2309 H 25.44680773241729 4.504161282313025 31.309898308081685 H 0.0 **** 0.41
2310 H 24.19847301027128 5.594218298794043 31.660467826174298 H 0.0 **** 0.41
2311 O 6.111303981028898 32.373873142647504 37.335199817020985 O 0.0 **** -0.82
2312 H 5.707943640133657 33.2950792040566 37.11509105243049 H 0.0 **** 0.41
2313 H 6.597082361882828 32.360941476943324 38.2033843360819 H 0.0 **** 0.41
2314 O 10.297616238163407 47.251014612338174 38.40179542543323 O 0.0 **** -0.82
2315 H 11.177550042831006 46.88414865830944 38.74137604239118 H 0.0 **** 0.41
2316 H 9.908631892024319 46.431890837107716 37.94674686096548 H 0.0 **** 0.41
2317 O 32.62476334415171 22.86218237177603 27.9054756524612 O 0.0 **** -0.82
2318 H 32.69258794171358 22.852715831263424 26.891639457682285 H 0.0 **** 0.41
2319 H 32.2778338723191 21.931720293072388 27.873775495902795 H 0.0 **** 0.41
2320 O 19.90057017800873 36.954992264839326 42.92443591356851 O 0.0 **** -0.82
2321 H 19.59544728509511 37.690695599179094 42.31170547076206 H 0.0 **** 0.41
2322 H 19.88992291981436 37.26785941267626 43.90579270851096 H 0.0 **** 0.41
2323 O 32.092605662961645 7.583953314403736 22.126281681718414 O 0.0 **** -0.82
2324 H 32.463986440015034 8.543421902320418 22.07979924446024 H 0.0 **** 0.41
2325 H 31.0921211726739 7.747396647067134 22.055042170805716 H 0.0 **** 0.41
2326 O 9.323549480550005 49.29797172082043 1.8214099201849052 O 0.0 **** -0.82
2327 H 9.493800686525853 48.42841070826236 1.3105399264531385 H 0.0 **** 0.41
2328 H 9.887044906168581 50.006077174649675 1.3112554841171118 H 0.0 **** 0.41
2329 O 40.521972924630745 2.8649054249993395 47.51543004057795 O 0.0 **** -0.82
2330 H 40.922347929313624 3.804517883088688 47.381715755924965 H 0.0 **** 0.41
2331 H 41.14213777870379 2.287306527962979 46.960648679080165 H 0.0 **** 0.41
2332 O 43.86335005229905 26.886842776549265 35.43552050228762 O 0.0 **** -0.82
2333 H 43.27148277887951 26.552281435773175 34.67893011001834 H 0.0 **** 0.41
2334 H 44.362897545031736 26.015719897974552 35.67701793506675 H 0.0 **** 0.41
2335 O 35.06376891511969 17.55485971721879 27.117737508626615 O 0.0 **** -0.82
2336 H 34.55665499126596 16.801585240014607 27.568125902372373 H 0.0 **** 0.41
2337 H 35.015289816532864 17.446127428516043 26.157345498305155 H 0.0 **** 0.41
2338 O 9.941134781035833 44.73117800853893 17.31862552009047 O 0.0 **** -0.82
2339 H 10.219516358107223 44.123021773701055 16.5470924407295 H 0.0 **** 0.41
2340 H 9.350979762449342 45.42002371053976 16.866211148562506 H 0.0 **** 0.41
2341 O 38.60481802236349 18.898734472710345 31.103194613891247 O 0.0 **** -0.82
2342 H 38.41786719391677 18.174097826636924 31.795456391561785 H 0.0 **** 0.41
2343 H 38.49022289759357 18.440757527255162 30.1797442456474 H 0.0 **** 0.41
2344 O 12.616943889489198 33.68119270844351 44.48129992454219 O 0.0 **** -0.82
2345 H 13.027652147695013 34.412723837687516 45.1120278752369 H 0.0 **** 0.41
2346 H 12.558981364158356 32.91615193132632 45.21385438925814 H 0.0 **** 0.41
2347 O 44.03374437016172 26.316799493687256 1.5027055817768726 O 0.0 **** -0.82
2348 H 44.87251675990568 25.745227754487047 1.6566486564795753 H 0.0 **** 0.41
2349 H 44.26576205389074 26.93592745649876 0.7402348574403206 H 0.0 **** 0.41
2350 O 40.552292711515996 17.501672240228064 47.30618401807488 O 0.0 **** -0.82
2351 H 41.076845347610295 17.147655893809667 48.099783265502296 H 0.0 **** 0.41
2352 H 40.63169023958433 16.870400289394627 46.5126094219111 H 0.0 **** 0.41
2353 O 11.84440200510482 0.3284904878831938 30.607279809770205 O 0.0 **** -0.82
2354 H 10.886425958886198 0.5417933375190387 30.62191852799873 H 0.0 **** 0.41
2355 H 11.988340600752334 -0.1814397152344327 31.46298985668261 H 0.0 **** 0.41
2356 O 46.219793246766685 0.7163173410808198 15.886204697844502 O 0.0 **** -0.82
2357 H 45.93337461678552 1.0530129249792244 14.939021334509226 H 0.0 **** 0.41
2358 H 47.00375448294699 1.330886155732657 16.064237649851353 H 0.0 **** 0.41
2359 O 27.672742995075634 28.984482968527864 27.902241310046968 O 0.0 **** -0.82
2360 H 27.42927579999729 29.991461536441907 27.869304432180346 H 0.0 **** 0.41
2361 H 27.853301393732856 28.57603989024058 26.975405173505745 H 0.0 **** 0.41
2362 O 34.09680913670628 30.423693418651336 20.622439663514516 O 0.0 **** -0.82
2363 H 34.9974006913899 29.955174514608878 20.699669157997956 H 0.0 **** 0.41
2364 H 34.2888723238096 31.337926357498308 21.003556547295727 H 0.0 **** 0.41
2365 O 38.12368324232224 33.41481483750107 41.83756748453172 O 0.0 **** -0.82
2366 H 37.90845627227917 34.35743496020231 41.43219113101735 H 0.0 **** 0.41
2367 H 37.31282856733645 33.07648801395475 42.428771212478615 H 0.0 **** 0.41
2368 O 26.249676294917947 25.302196086920276 38.14907146515311 O 0.0 **** -0.82
2369 H 25.74127374736727 24.463211928910457 38.15366054756137 H 0.0 **** 0.41
2370 H 25.708240376259106 25.83565809849836 37.44199828296784 H 0.0 **** 0.41
2371 O 2.3310523437972748 3.4129749616521226 30.92376522862374 O 0.0 **** -0.82
2372 H 1.5856194736985003 4.031984445847984 31.14271312189928 H 0.0 **** 0.41
2373 H 1.9713568544344326 2.4254041927210155 30.88478719654769 H 0.0 **** 0.41
2374 O 23.844027704249058 32.19001825291905 18.45831782888095 O 0.0 **** -0.82
2375 H 23.59678307544972 31.58241393822343 19.24242335418399 H 0.0 **** 0.41
2376 H 24.27969265648143 32.98199324703129 18.862953001300998 H 0.0 **** 0.41
2377 O 24.362637919489565 41.704651430763874 29.26115555273149 O 0.0 **** -0.82
2378 H 23.554266133619986 41.143080052692056 28.946736787425042 H 0.0 **** 0.41
2379 H 25.048500717199264 41.1241113364821 29.74764400645014 H 0.0 **** 0.41
2380 O 25.5309419592649 44.39325303433305 5.405014462821139 O 0.0 **** -0.82
2381 H 25.938503677091347 43.500163464155776 5.10175786849703 H 0.0 **** 0.41
2382 H 24.651367214209124 44.40294768754898 4.9266804455613205 H 0.0 **** 0.41
2383 O 42.367885254824834 43.39113417853917 39.47733398495213 O 0.0 **** -0.82
2384 H 41.676820427130984 42.82614215553163 40.04135683471924 H 0.0 **** 0.41
2385 H 43.181332196335696 42.81627702598857 39.3342484566694 H 0.0 **** 0.41
2386 O 10.997190170109764 30.35411420169066 43.8482285853195 O 0.0 **** -0.82
2387 H 11.20262848199312 30.96085465135586 44.660833768329404 H 0.0 **** 0.41
2388 H 10.302722396585803 30.890342529166062 43.34096665114085 H 0.0 **** 0.41
2389 O 46.521022982576454 6.9845241078330105 47.463856721335006 O 0.0 **** -0.82
2390 H 46.088059241246256 6.44698174556401 46.716240180367684 H 0.0 **** 0.41
2391 H 46.81082812062465 6.357392901811025 48.188185670109235 H 0.0 **** 0.41
2392 O 31.492412324304112 31.364755101925994 11.844508450104328 O 0.0 **** -0.82
2393 H 32.215974663777025 30.705617273413 11.534807343605769 H 0.0 **** 0.41
2394 H 31.64273874532422 31.602598795795675 12.790852434175171 H 0.0 **** 0.41
2395 O 0.38084273415387315 6.381748613255498 17.43444618318449 O 0.0 **** -0.82
2396 H 0.8753502892163851 6.675609586346042 16.620260694253265 H 0.0 **** 0.41
2397 H -0.6512029214178412 6.199669519835319 17.217879686310663 H 0.0 **** 0.41
2398 O 34.7509451645162 34.28676626451431 3.491357236767911 O 0.0 **** -0.82
2399 H 34.41560089699735 33.369921332831446 3.3161803138242263 H 0.0 **** 0.41
2400 H 34.816773182362155 34.31375018187819 4.475808299657508 H 0.0 **** 0.41
2401 O 12.573590463614238 36.58097970945484 12.724060298336646 O 0.0 **** -0.82
2402 H 12.048909893415782 37.3392628776501 12.317353972619063 H 0.0 **** 0.41
2403 H 12.224809633800582 35.69426732613363 12.358926669138224 H 0.0 **** 0.41
2404 O 24.1859133419035 3.447023534664078 11.145682277368365 O 0.0 **** -0.82
2405 H 24.665417505926115 3.0439820741460464 11.95391261893812 H 0.0 **** 0.41
2406 H 24.888249256802084 4.180213601196132 10.922953428906638 H 0.0 **** 0.41
2407 O 18.471230198238754 26.26302862531513 21.36436532818493 O 0.0 **** -0.82
2408 H 18.665237438241732 26.506494000528395 20.386649594448045 H 0.0 **** 0.41
2409 H 18.07478462196811 27.116664993184777 21.679904943471286 H 0.0 **** 0.41
2410 O 42.69240216626292 20.981593321014127 47.231121131759714 O 0.0 **** -0.82
2411 H 43.05484866909879 20.047146045607132 47.35746871893354 H 0.0 **** 0.41
2412 H 43.5371416347481 21.534481002930228 47.106722943544085 H 0.0 **** 0.41
2413 O 48.80027193048206 26.86086701745346 21.43690031212725 O 0.0 **** -0.82
2414 H 48.32068404475578 26.515595678223534 20.60454231775917 H 0.0 **** 0.41
2415 H 49.44525710679963 26.086220163773746 21.536993641584502 H 0.0 **** 0.41
2416 O 49.65785467067472 3.7876824782806224 7.4981613364229105 O 0.0 **** -0.82
2417 H 49.94056025963497 4.5598775225195425 8.083121243687387 H 0.0 **** 0.41
2418 H 50.024441369961 2.8917165720196536 7.930265166956289 H 0.0 **** 0.41
2419 O 9.81130273293568 15.871115437654993 2.4912984069135717 O 0.0 **** -0.82
2420 H 9.81218339229547 16.347241010222888 3.3700663408020404 H 0.0 **** 0.41
2421 H 9.050553523245481 16.30971012577885 1.9689363986924064 H 0.0 **** 0.41
2422 O 25.93763429627051 46.600633699308204 48.69396753096435 O 0.0 **** -0.82
2423 H 26.04407385430352 47.10312158352284 47.83811266715154 H 0.0 **** 0.41
2424 H 26.809691275829845 46.08133408906712 48.771341517608015 H 0.0 **** 0.41
2425 O 26.655770940596078 9.596244046049648 7.394280621964516 O 0.0 **** -0.82
2426 H 27.0809821194679 9.666299934089785 6.515227935035919 H 0.0 **** 0.41
2427 H 25.759593591851463 9.074189813614556 7.213563771762301 H 0.0 **** 0.41
2428 O 4.182305364930275 33.760702839715805 27.842928737778596 O 0.0 **** -0.82
2429 H 3.188720942600206 34.1248155251498 27.820637752868965 H 0.0 **** 0.41
2430 H 4.420721292305264 33.50989743402511 26.871660519417567 H 0.0 **** 0.41
2431 O 9.046433109512838 7.965584972383113 22.98330225852995 O 0.0 **** -0.82
2432 H 9.54781034106947 7.252259220933904 22.469627695799975 H 0.0 **** 0.41
2433 H 9.830105774986482 8.248997815302813 23.561317322703893 H 0.0 **** 0.41
2434 O 32.08900331575292 0.8954481378578762 17.36261730035298 O 0.0 **** -0.82
2435 H 33.0143482510044 0.6017063792458117 16.94982967503893 H 0.0 **** 0.41
2436 H 32.34396852206384 1.687670905819445 17.909043295612793 H 0.0 **** 0.41
2437 O 21.264353869029698 42.73283205737774 38.71351465737537 O 0.0 **** -0.82
2438 H 20.319149382158898 42.811031614027584 39.06617964998365 H 0.0 **** 0.41
2439 H 21.781499064061794 43.361538960453366 39.31380376732694 H 0.0 **** 0.41
2440 O 2.617864296745471 43.85067098622927 36.652221215858866 O 0.0 **** -0.82
2441 H 2.4293461525788898 44.86446265878116 36.841002196653584 H 0.0 **** 0.41
2442 H 3.2874903163799543 43.63834287955672 37.35294616496488 H 0.0 **** 0.41
2443 O 44.85583780110457 15.019178913105538 9.695618562951108 O 0.0 **** -0.82
2444 H 45.17530659658481 15.689651853522149 10.367792233887727 H 0.0 **** 0.41
2445 H 45.64076052929556 14.443858570180852 9.439422064030317 H 0.0 **** 0.41
2446 O 18.272289089972983 7.625780390941581 30.559025770593454 O 0.0 **** -0.82
2447 H 17.853392510021095 7.881336089700082 29.66049554542048 H 0.0 **** 0.41
2448 H 17.507514741346842 7.757186006123135 31.21708307693279 H 0.0 **** 0.41
2449 O 24.05566146072613 6.003568574202944 20.136461862048005 O 0.0 **** -0.82
2450 H 23.286562146737975 5.556605879013588 19.60262555563674 H 0.0 **** 0.41
2451 H 23.566978545114566 6.566488293368998 20.875787367137107 H 0.0 **** 0.41
2452 O 6.477339139295372 6.434723344432985 36.4942294175457 O 0.0 **** -0.82
2453 H 7.110069941256183 6.488503461576689 35.76379693504968 H 0.0 **** 0.41
2454 H 6.793115318694819 7.175603138605164 37.081880794859174 H 0.0 **** 0.41
2455 O 15.489836400568947 43.821160233434355 23.734066084257417 O 0.0 **** -0.82
2456 H 16.367129973796008 44.06192843301391 24.18947149399697 H 0.0 **** 0.41
2457 H 15.647997996219633 42.831849217236034 23.426924487113236 H 0.0 **** 0.41
2458 O 42.70459234846551 20.44120314366386 29.205389350982177 O 0.0 **** -0.82
2459 H 43.67092770909896 20.53568798838259 29.36568456548036 H 0.0 **** 0.41
2460 H 42.66608180247054 19.530781412256946 28.852945891878647 H 0.0 **** 0.41
2461 O 25.450110855300263 39.827733411116284 45.27608516195526 O 0.0 **** -0.82
2462 H 25.520432348856506 40.288357540133305 44.40815758453865 H 0.0 **** 0.41
2463 H 26.349229178578707 40.113186277598835 45.73596140366073 H 0.0 **** 0.41
2464 O 19.058618371070338 47.854933316687806 38.70097764163091 O 0.0 **** -0.82
2465 H 18.292984094700103 48.29785820504654 38.1511726642193 H 0.0 **** 0.41
2466 H 18.696742720444774 48.00916510388345 39.60766416245973 H 0.0 **** 0.41
2467 O 36.07443338874292 42.960643267430925 25.17669135317258 O 0.0 **** -0.82
2468 H 37.050217518731834 42.59770971222612 25.151887668636324 H 0.0 **** 0.41
2469 H 35.704870565142144 42.53305442165808 26.00442607500647 H 0.0 **** 0.41
2470 O 44.14434237255209 19.086227744944452 34.784769184838524 O 0.0 **** -0.82
2471 H 44.42552437102055 18.114314377303998 34.736631602713764 H 0.0 **** 0.41
2472 H 43.27421274092114 19.203631215949528 34.307664146111875 H 0.0 **** 0.41
2473 O 5.548003811248366 14.281662676120266 49.00956402659171 O 0.0 **** -0.82
2474 H 6.090440292092652 13.445920197875598 48.78771979454873 H 0.0 **** 0.41
2475 H 5.654709745299302 14.423986329510692 50.00251175610657 H 0.0 **** 0.41
2476 O 35.7417669979037 21.27464331686089 22.4097908644261 O 0.0 **** -0.82
2477 H 35.68409149890743 21.769234935751076 21.52484510839733 H 0.0 **** 0.41
2478 H 36.03363907465264 20.266434170577252 22.232119586379312 H 0.0 **** 0.41
2479 O 9.177753945836464 7.4728921370830275 42.045789578902024 O 0.0 **** -0.82
2480 H 9.894383233019466 7.690537180549758 42.7578496322751 H 0.0 **** 0.41
2481 H 8.466521163916706 6.889090370239576 42.48479411776273 H 0.0 **** 0.41
2482 O 44.789931385545174 15.797440161866964 2.031920841807544 O 0.0 **** -0.82
2483 H 43.99448026260586 15.883637013616259 2.6192569455657617 H 0.0 **** 0.41
2484 H 45.66409237787426 15.588501114412429 2.5603558522059164 H 0.0 **** 0.41
2485 O 29.121138683997064 14.072260309367408 3.7975118590745427 O 0.0 **** -0.82
2486 H 29.9146858046705 13.982905565464279 3.173608336090092 H 0.0 **** 0.41
2487 H 29.152236274654463 13.161170148671985 4.256139062886668 H 0.0 **** 0.41
2488 O 9.371267139413668 21.126544695559076 27.964749660643562 O 0.0 **** -0.82
2489 H 9.76063920526898 20.7839965539563 27.098347792869973 H 0.0 **** 0.41
2490 H 8.711353060446413 21.848102684094656 27.646815211597517 H 0.0 **** 0.41
2491 O 30.79534932158637 9.62390600836455 4.357132376793646 O 0.0 **** -0.82
2492 H 31.761066771153118 9.447177046163986 4.215012281535335 H 0.0 **** 0.41
2493 H 30.326135155676827 9.243909464317982 3.5208040832660004 H 0.0 **** 0.41
2494 O 28.21397017358128 19.781664808360006 3.602573360093686 O 0.0 **** -0.82
2495 H 27.80377061230355 19.42620984502061 2.7006737732421287 H 0.0 **** 0.41
2496 H 29.221875563576393 19.73521809364147 3.328243352272622 H 0.0 **** 0.41
2497 O 14.304343059691845 6.464922887175434 32.681628125945736 O 0.0 **** -0.82
2498 H 14.70412280414746 5.527923859487671 32.50183001545433 H 0.0 **** 0.41
2499 H 13.935036875044233 6.678268398087266 31.723036733310945 H 0.0 **** 0.41
2500 O 46.26409937641033 26.505040241697344 20.194143396031876 O 0.0 **** -0.82
2501 H 46.30082315909082 25.852741713673822 19.429722689256863 H 0.0 **** 0.41
2502 H 45.284193981866075 26.4249047236311 20.369393155345975 H 0.0 **** 0.41
2503 O 49.36773913725074 32.348975198359156 31.724263703262405 O 0.0 **** -0.82
2504 H 50.05767068748587 33.06177966804777 31.822200650839612 H 0.0 **** 0.41
2505 H 49.915621333310355 31.528500159373024 32.07536535204506 H 0.0 **** 0.41
2506 O 42.176995056085346 27.24324569952225 3.1702887837524116 O 0.0 **** -0.82
2507 H 43.06126087428262 27.112956937620574 2.6139761816766622 H 0.0 **** 0.41
2508 H 41.405168590999025 26.658643836727293 2.786735928942811 H 0.0 **** 0.41
2509 O 28.10388865152657 29.08570379633502 9.33208694265285 O 0.0 **** -0.82
2510 H 27.74738178208278 29.97669658035793 9.77770624033008 H 0.0 **** 0.41
2511 H 27.48524192388011 28.37223707179289 9.783250019507038 H 0.0 **** 0.41
2512 O 22.431202615480935 12.73997394839342 29.84374054049906 O 0.0 **** -0.82
2513 H 21.911227839915494 11.944525667148568 29.565042739547813 H 0.0 **** 0.41
2514 H 23.43298757956027 12.531514035891348 29.57417188248884 H 0.0 **** 0.41
2515 O 28.928696605367325 8.014585735635364 18.93747679602549 O 0.0 **** -0.82
2516 H 28.796199042958413 8.749956229873597 18.189370842584474 H 0.0 **** 0.41
2517 H 29.58518953900398 7.3664072666704925 18.487121241800654 H 0.0 **** 0.41
2518 O 8.348446060685262 38.83480828170821 23.215945544547353 O 0.0 **** -0.82
2519 H 8.003322896349431 39.77361944785682 23.284142533808307 H 0.0 **** 0.41
2520 H 7.620750816005923 38.47308224971055 22.56671023339412 H 0.0 **** 0.41
2521 O 34.800346242483954 40.08578901116194 8.729012393329159 O 0.0 **** -0.82
2522 H 34.136526484201724 39.55766704251349 9.246215158896723 H 0.0 **** 0.41
2523 H 34.224195698448 40.61557223699402 8.087694932948443 H 0.0 **** 0.41
2524 O 32.90670215110743 22.510379544591014 24.909861236513866 O 0.0 **** -0.82
2525 H 32.93320124805988 21.54951711601369 24.639413093799643 H 0.0 **** 0.41
2526 H 33.59852188516665 23.06510392899014 24.399051067972465 H 0.0 **** 0.41
2527 O 35.320958258520605 1.323121073544285 36.764551221006435 O 0.0 **** -0.82
2528 H 35.514725396307 1.4079065419545422 37.779909034877384 H 0.0 **** 0.41
2529 H 35.806513732335304 0.5120796759286373 36.40659158784766 H 0.0 **** 0.41
2530 O 15.119986189752465 40.5500283871727 22.45935984522535 O 0.0 **** -0.82
2531 H 14.101111988720769 40.37778480705094 22.364792265492284 H 0.0 **** 0.41
2532 H 15.49988759005453 40.8489246085591 21.540968166782847 H 0.0 **** 0.41
2533 O 1.9462591509385159 0.7275701650874851 30.519503663010052 O 0.0 **** -0.82
2534 H 2.9171426167201897 0.8209564342721904 30.22812279455959 H 0.0 **** 0.41
2535 H 1.9820955147714363 0.03969050211489389 31.259453768040423 H 0.0 **** 0.41
2536 O 4.67065294604942 11.44363957957529 31.80157220519746 O 0.0 **** -0.82
2537 H 4.542859939086835 12.36020764563525 32.247478048593265 H 0.0 **** 0.41
2538 H 5.667227768066051 11.26672725746944 31.946657084973427 H 0.0 **** 0.41
2539 O 35.56766013892672 40.108865320305085 5.455130926804948 O 0.0 **** -0.82
2540 H 35.60987570490507 39.30460556794146 6.0857469242905085 H 0.0 **** 0.41
2541 H 36.52072353604346 40.41306901320656 5.35654779775056 H 0.0 **** 0.41
2542 O 2.9885037762161883 13.751804076038368 12.511152625264089 O 0.0 **** -0.82
2543 H 1.9774871450739804 13.739920276439499 12.724808500070068 H 0.0 **** 0.41
2544 H 3.360634411742846 14.269832773362609 13.328130282806079 H 0.0 **** 0.41
2545 O 44.58518300334469 49.01689876983061 33.53943895226209 O 0.0 **** -0.82
2546 H 44.64374870504859 49.53675021649009 32.60994669112748 H 0.0 **** 0.41
2547 H 45.287357976451695 48.30061900571902 33.4139131404056 H 0.0 **** 0.41
2548 O 3.3876262918162254 36.413145390912874 39.759415627431025 O 0.0 **** -0.82
2549 H 4.107044933363632 37.05356157877585 40.018775459384266 H 0.0 **** 0.41
2550 H 3.105798847971613 36.46634200004008 38.71083390420302 H 0.0 **** 0.41
2551 O 5.552302400915177 2.2180451265557153 17.04603613501153 O 0.0 **** -0.82
2552 H 6.508684591250969 2.1856485616744123 16.62191048622032 H 0.0 **** 0.41
2553 H 5.26539505028487 3.151750596233967 16.825378573374167 H 0.0 **** 0.41
2554 O 49.679186604336145 44.752360822760885 49.76033751132565 O 0.0 **** -0.82
2555 H 50.66543266306875 44.535778513309126 49.54185358537973 H 0.0 **** 0.41
2556 H 49.61594485769781 44.99501168019386 50.76943672034122 H 0.0 **** 0.41
2557 O 39.53792810050076 4.284162992529436 12.572112136698259 O 0.0 **** -0.82
2558 H 39.46023878317515 4.947052247217748 11.85440496036135 H 0.0 **** 0.41
2559 H 39.000755402529556 4.634934555445026 13.35932675173575 H 0.0 **** 0.41
2560 O 13.34981536108522 41.104311732739966 26.493126035988976 O 0.0 **** -0.82
2561 H 13.18839037968052 40.15458297095695 26.886766254338525 H 0.0 **** 0.41
2562 H 14.207755097866155 41.0494047535891 25.96881031248143 H 0.0 **** 0.41
2563 O 31.066598297557277 9.811635886189237 23.777614175304535 O 0.0 **** -0.82
2564 H 30.358008780540253 10.57556356891934 23.913603265747902 H 0.0 **** 0.41
2565 H 31.685438970708482 9.951880078265743 22.934511744747333 H 0.0 **** 0.41
2566 O 24.046172564515473 14.958119400033524 14.616156985060094 O 0.0 **** -0.82
2567 H 24.25891643226575 15.877329288931719 14.82147949312562 H 0.0 **** 0.41
2568 H 24.056666289631863 14.821548447094358 13.56986616901494 H 0.0 **** 0.41
2569 O 23.9292125957002 13.423041816931867 17.54973759062199 O 0.0 **** -0.82
2570 H 23.152687216506838 12.737725575879436 17.50831757570393 H 0.0 **** 0.41
2571 H 24.722553392964308 13.067717025326642 18.143552724504723 H 0.0 **** 0.41
2572 O 49.22587842572356 3.3598808286317587 49.861128690206385 O 0.0 **** -0.82
2573 H 50.1599693442089 3.476967106450824 50.243354434899175 H 0.0 **** 0.41
2574 H 48.83549770400122 2.6426131348379953 50.50583738940723 H 0.0 **** 0.41
2575 O 23.80073442511547 40.784141598507226 23.43869783295159 O 0.0 **** -0.82
2576 H 24.204516464181324 39.91699820762041 23.091167942692756 H 0.0 **** 0.41
2577 H 24.28339504300992 40.99768630079448 24.317367797360692 H 0.0 **** 0.41
2578 O 16.504585362550355 21.089381081306783 6.844041153060871 O 0.0 **** -0.82
2579 H 15.893036608794343 20.256561028736513 6.578444193845101 H 0.0 **** 0.41
2580 H 16.99561543138157 21.43345805071226 6.055619735283294 H 0.0 **** 0.41
2581 O 11.38272508520712 46.283216131562675 30.819292417773575 O 0.0 **** -0.82
2582 H 12.094958307838695 46.7679742480536 30.21853231743882 H 0.0 **** 0.41
2583 H 11.637557319888415 46.6020769088692 31.756213238320385 H 0.0 **** 0.41
2584 O 18.297659857493507 12.051643885194334 38.49569107379397 O 0.0 **** -0.82
2585 H 19.230630736177087 12.131079661807815 38.18615599075385 H 0.0 **** 0.41
2586 H 17.745024109110744 12.542939203924327 37.79564080478522 H 0.0 **** 0.41
2587 O 28.52665399530837 20.487636717782024 13.525033914543227 O 0.0 **** -0.82
2588 H 28.882304940122317 20.89140998882388 12.703886362288998 H 0.0 **** 0.41
2589 H 28.11257710399411 19.586996839082815 13.349457331606091 H 0.0 **** 0.41
2590 O 20.646941722033848 42.97662431535774 17.764329261475773 O 0.0 **** -0.82
2591 H 19.88146536050761 42.90223926081587 17.092236499413225 H 0.0 **** 0.41
2592 H 21.006538159087043 42.0403373007218 17.74027195379029 H 0.0 **** 0.41
2593 O 38.639514203088495 22.700316420791324 43.78685083092114 O 0.0 **** -0.82
2594 H 38.06390780562978 22.993330388648666 42.978903818945 H 0.0 **** 0.41
2595 H 38.07572481094808 22.925773129010242 44.64562878182973 H 0.0 **** 0.41
2596 O 6.660307710776681 28.125559994214996 39.07824590053724 O 0.0 **** -0.82
2597 H 6.532298901807681 28.047375393086202 38.09202446804933 H 0.0 **** 0.41
2598 H 5.7776396837639465 28.54327049678842 39.35967408407388 H 0.0 **** 0.41
2599 O 7.4144613154335985 14.124912309187371 41.24710132563489 O 0.0 **** -0.82
2600 H 7.452603806451144 15.117849548680674 41.38978580650262 H 0.0 **** 0.41
2601 H 7.815222064107921 14.023653666724627 40.273598759746974 H 0.0 **** 0.41
2602 O 23.469661866439978 1.2448051809085001 39.34090335855536 O 0.0 **** -0.82
2603 H 24.02055317043588 0.642359255938878 38.77025712033256 H 0.0 **** 0.41
2604 H 23.152207404584264 0.7037691806839987 40.10185047339874 H 0.0 **** 0.41
2605 O 15.403949025213802 5.371191466974365 22.61885473396731 O 0.0 **** -0.82
2606 H 16.1236013183137 5.900720393241782 23.070318453897737 H 0.0 **** 0.41
2607 H 14.894242185689201 5.912636045924472 21.96911794709219 H 0.0 **** 0.41
2608 O 30.163259353958736 30.06253303048205 0.6471468329005461 O 0.0 **** -0.82
2609 H 30.70749524593974 29.183412042159436 0.40489859936330674 H 0.0 **** 0.41
2610 H 29.75734318374998 29.684736966713675 1.5201807412646104 H 0.0 **** 0.41
2611 O 8.039685890190341 39.929130196802134 26.445403928037592 O 0.0 **** -0.82
2612 H 7.380672038684693 39.16620180090847 26.68184875064425 H 0.0 **** 0.41
2613 H 8.019816303312062 39.9160248274608 25.447895484679677 H 0.0 **** 0.41
2614 O 8.616600557544913 49.202379733670085 21.361934898421243 O 0.0 **** -0.82
2615 H 9.02321035700203 48.58022941327934 22.107481098223523 H 0.0 **** 0.41
2616 H 7.915839276276556 48.56875302923589 20.91948880076507 H 0.0 **** 0.41
2617 O 17.02468222755168 43.76658709773758 26.356971234709444 O 0.0 **** -0.82
2618 H 16.62052919897964 44.30761143804848 27.083421809164104 H 0.0 **** 0.41
2619 H 17.1900082757156 44.32583273879901 25.555576469956257 H 0.0 **** 0.41
2620 O 25.392713038662013 5.498547967865612 16.410488952714488 O 0.0 **** -0.82
2621 H 24.647882100958533 5.717679561804189 16.99813373449048 H 0.0 **** 0.41
2622 H 24.900760654969066 5.270320414026386 15.550165621965569 H 0.0 **** 0.41
2623 O 36.621706907560664 26.136386157793652 4.4081738727724655 O 0.0 **** -0.82
2624 H 36.379736838707416 26.709415452841696 3.6259517555466303 H 0.0 **** 0.41
2625 H 36.1572163704455 25.28498454205652 4.252598125681722 H 0.0 **** 0.41
2626 O 40.59890982538856 5.255130334681624 41.519634786433784 O 0.0 **** -0.82
2627 H 40.726589163608786 4.304172851125763 41.876545412620324 H 0.0 **** 0.41
2628 H 40.91076478021588 5.119810466767312 40.56262543667758 H 0.0 **** 0.41
2629 O 38.461791178401704 36.63740898887904 32.44054472864704 O 0.0 **** -0.82
2630 H 37.97617543784194 36.84924636063456 33.29971817837003 H 0.0 **** 0.41
2631 H 39.36215028690974 37.105396155764694 32.59508091460015 H 0.0 **** 0.41
2632 O 36.63462283602912 36.003475761544465 2.466431399344529 O 0.0 **** -0.82
2633 H 35.94245249478308 35.28340159473773 2.6255098944162967 H 0.0 **** 0.41
2634 H 36.93505722770969 36.31308962602279 3.4053028400587024 H 0.0 **** 0.41
2635 O 20.60146846021115 37.31413475622101 45.609215713773644 O 0.0 **** -0.82
2636 H 20.240434989319947 36.99213761589577 46.45717376743761 H 0.0 **** 0.41
2637 H 21.59092949538665 37.327306736626475 45.57711910717786 H 0.0 **** 0.41
2638 O 39.832814855123964 2.0487255728105325 30.693046677369654 O 0.0 **** -0.82
2639 H 39.16311211791557 2.6314228073643875 30.256424287722393 H 0.0 **** 0.41
2640 H 39.653668207548755 1.1048598544643937 30.418055910750507 H 0.0 **** 0.41
2641 O 31.772672076437917 4.203053902524964 25.53346079887147 O 0.0 **** -0.82
2642 H 31.01155590121067 3.9669212350776846 26.17091890907269 H 0.0 **** 0.41
2643 H 31.71549611831472 3.5882460688067184 24.7203221921345 H 0.0 **** 0.41
2644 O 29.771239269644525 14.732253203475032 38.134161185738236 O 0.0 **** -0.82
2645 H 29.803040009189207 15.192028700200225 39.03010500071054 H 0.0 **** 0.41
2646 H 30.35852479941303 15.384249356606496 37.59118592047537 H 0.0 **** 0.41
2647 O 2.130309040029509 9.68654061204792 3.85758220528286 O 0.0 **** -0.82
2648 H 3.072152938997206 9.641094272016346 3.609906477760944 H 0.0 **** 0.41
2649 H 2.154098665955061 9.11905499693136 4.755076819292107 H 0.0 **** 0.41
2650 O 10.157549768587145 30.769267557014633 17.796765604226056 O 0.0 **** -0.82
2651 H 9.528358475318619 30.045129785740933 18.019487630913147 H 0.0 **** 0.41
2652 H 10.310129332746747 31.34576614427243 18.66058798834022 H 0.0 **** 0.41
2653 O 47.81608697522528 14.424289997539056 17.617072952248236 O 0.0 **** -0.82
2654 H 48.69944315138985 14.143826386452876 17.233882747011993 H 0.0 **** 0.41
2655 H 48.15986911331195 15.173559336572403 18.184344055359194 H 0.0 **** 0.41
2656 O 12.147365326006664 31.934403004386553 1.8179872472993355 O 0.0 **** -0.82
2657 H 11.742041336350539 32.554712898251154 2.5288321331791472 H 0.0 **** 0.41
2658 H 13.164061300900872 32.12202077484254 1.7290476840228628 H 0.0 **** 0.41
2659 O 40.958040562782685 46.77413438489251 28.55877919531028 O 0.0 **** -0.82
2660 H 41.71149275516993 47.00082389387551 27.99108420236234 H 0.0 **** 0.41
2661 H 41.31668746365466 47.13089454724494 29.443741294960482 H 0.0 **** 0.41
2662 O 11.968361888928289 9.208608695890007 37.524063847083575 O 0.0 **** -0.82
2663 H 12.212921098750169 10.152262977669182 37.800824225891546 H 0.0 **** 0.41
2664 H 12.80430369451555 8.769392173853333 37.82916449986493 H 0.0 **** 0.41
2665 O 44.010927883013494 41.71942075972757 11.73439239718415 O 0.0 **** -0.82
2666 H 43.89635143489656 42.629911509234034 12.240123529339392 H 0.0 **** 0.41
2667 H 43.709827393900184 41.729653117612514 10.785654276373638 H 0.0 **** 0.41
2668 O 45.28324684654425 38.70175344644771 21.756284441044592 O 0.0 **** -0.82
2669 H 45.628441991677924 39.60403129454293 22.148788468673878 H 0.0 **** 0.41
2670 H 46.00683571570171 38.04347245330437 21.931034395092635 H 0.0 **** 0.41
2671 O 5.676047602104642 14.097091485124755 19.50348424560348 O 0.0 **** -0.82
2672 H 6.383445554601512 13.449660920633468 19.86526049888882 H 0.0 **** 0.41
2673 H 5.405614417912407 13.835688722184805 18.565452138889903 H 0.0 **** 0.41
2674 O 7.297872873650031 14.988699632232315 13.145617306326514 O 0.0 **** -0.82
2675 H 6.577917752716119 15.649113075393275 12.90206525394738 H 0.0 **** 0.41
2676 H 7.169125344991595 14.24002431274145 12.51932637260893 H 0.0 **** 0.41
2677 O 17.060579751915625 42.79294501219326 38.660041832590885 O 0.0 **** -0.82
2678 H 17.92378782334734 42.53368368925153 39.05575759010252 H 0.0 **** 0.41
2679 H 17.207261493568865 43.476984885241386 37.892021786855814 H 0.0 **** 0.41
2680 O 34.11101065889248 0.17117578549393103 13.903500812771293 O 0.0 **** -0.82
2681 H 34.538736389887774 0.7079654997163474 14.613868394074032 H 0.0 **** 0.41
2682 H 34.908486351097764 -0.2683156867713521 13.411047949046157 H 0.0 **** 0.41
2683 O 14.836736944465173 28.468484568526094 40.48249360286366 O 0.0 **** -0.82
2684 H 15.653756164499555 28.04832467888501 40.85372212408229 H 0.0 **** 0.41
2685 H 14.737786681354805 28.356385817714596 39.46670867597026 H 0.0 **** 0.41
2686 O 14.961115532580981 20.80040153142605 43.14273257651691 O 0.0 **** -0.82
2687 H 15.830983190092189 21.200615132656463 43.65419501005681 H 0.0 **** 0.41
2688 H 15.240939587011574 20.750343268832765 42.18624122633921 H 0.0 **** 0.41
2689 O 36.03037629252772 32.32431610535764 33.82166549938005 O 0.0 **** -0.82
2690 H 35.12592930491838 32.060054284841954 33.422195772388505 H 0.0 **** 0.41
2691 H 36.27677759657672 33.12793262379412 33.177877333621645 H 0.0 **** 0.41
2692 O 2.9388024577670038 16.31241075643887 31.542071667754865 O 0.0 **** -0.82
2693 H 3.680395453575855 16.803934591872107 31.05585230853678 H 0.0 **** 0.41
2694 H 2.050764471647632 16.828865497237814 31.45985591039432 H 0.0 **** 0.41
2695 O 6.595409441150693 24.840366855760166 6.72447713076927 O 0.0 **** -0.82
2696 H 7.203828368867256 25.60424971267942 6.465055904747229 H 0.0 **** 0.41
2697 H 6.287270287168305 24.419920826016817 5.816952046654764 H 0.0 **** 0.41
2698 O 47.6344907769899 27.625608757212692 5.265403827888946 O 0.0 **** -0.82
2699 H 48.60902434619701 27.92524449011114 5.300554154163514 H 0.0 **** 0.41
2700 H 47.423881934896116 27.17334583001871 6.1412276726648685 H 0.0 **** 0.41
2701 O 12.840867394758206 38.310789022338774 28.344697766746776 O 0.0 **** -0.82
2702 H 13.721887702893909 38.028779237064185 28.833941598208924 H 0.0 **** 0.41
2703 H 12.509731901553096 37.51356689647429 27.788303334264953 H 0.0 **** 0.41
2704 O 44.650162132304686 0.2578345680099119 31.31965868416708 O 0.0 **** -0.82
2705 H 45.40880465261681 0.5028429213786723 30.73202149336156 H 0.0 **** 0.41
2706 H 43.904649499922826 0.9129324089254425 31.09223846164183 H 0.0 **** 0.41
2707 O 2.791206856407385 8.099596334584394 37.83256754827307 O 0.0 **** -0.82
2708 H 2.1675639276603604 7.353177774314802 37.62074304322438 H 0.0 **** 0.41
2709 H 2.591549201461291 8.37635089232203 38.771513177710794 H 0.0 **** 0.41
2710 O 0.943987471518978 17.976040216833965 38.83576547529859 O 0.0 **** -0.82
2711 H 0.18650520121729833 18.622299783178022 39.17889742896155 H 0.0 **** 0.41
2712 H 0.4166329890298093 17.29890934165695 38.248540599243114 H 0.0 **** 0.41
2713 O 30.430881001694356 48.994168725993795 18.275016956379712 O 0.0 **** -0.82
2714 H 30.319533299033562 48.501852245570234 17.349150507571167 H 0.0 **** 0.41
2715 H 31.187163170864675 49.652540071367476 18.130429110688713 H 0.0 **** 0.41
2716 O 41.76053958368432 16.573433083561795 34.40093685868099 O 0.0 **** -0.82
2717 H 41.74373641494465 17.555979810694474 34.69165939461997 H 0.0 **** 0.41
2718 H 42.173728370016164 16.002462564257552 35.15648700549157 H 0.0 **** 0.41
2719 O 19.87965665767538 7.976875996837563 41.47626485427432 O 0.0 **** -0.82
2720 H 20.57293018847569 7.415636226922942 42.00484782767495 H 0.0 **** 0.41
2721 H 19.61385657258172 7.359384158739999 40.713600966116246 H 0.0 **** 0.41
2722 O 5.068836208474626 41.17349362143562 30.553399267661888 O 0.0 **** -0.82
2723 H 4.633238665372453 41.28313146871988 31.472424643680686 H 0.0 **** 0.41
2724 H 4.333445791716011 40.76011094941698 29.98297513073711 H 0.0 **** 0.41
2725 O 42.02732808139565 1.953363160717366 14.947818400744975 O 0.0 **** -0.82
2726 H 42.49988023343719 1.6176459484824477 15.756176671360587 H 0.0 **** 0.41
2727 H 42.43870227439242 2.838276485949528 14.807484936394923 H 0.0 **** 0.41
2728 O 45.04351437198732 12.839383009950748 5.291130710117125 O 0.0 **** -0.82
2729 H 44.50177941803757 13.596885942999334 5.767313392740625 H 0.0 **** 0.41
2730 H 45.756502671818275 12.458661232437004 5.854287874370992 H 0.0 **** 0.41
2731 O 42.7509674602475 44.54911949368622 12.473666252154478 O 0.0 **** -0.82
2732 H 41.775550297718496 44.4245888016906 12.194811327606066 H 0.0 **** 0.41
2733 H 43.25432707258455 44.9376216922844 11.638021904949646 H 0.0 **** 0.41
2734 O 41.91341781635415 0.5131015544115725 0.9173987317699668 O 0.0 **** -0.82
2735 H 42.22979496257128 -0.4103393338453145 0.853981614825383 H 0.0 **** 0.41
2736 H 41.11938067014046 0.4436839879759911 0.23493473987495964 H 0.0 **** 0.41
2737 O 11.853622701666715 0.6376348686243958 36.996679510522995 O 0.0 **** -0.82
2738 H 11.339977086401689 0.7245662754211892 37.85994486975104 H 0.0 **** 0.41
2739 H 12.09249427636827 -0.3338230852684987 36.73400731870093 H 0.0 **** 0.41
2740 O 37.78281494288129 7.339064753412188 33.7653439872316 O 0.0 **** -0.82
2741 H 37.886198884339194 8.338105379486118 33.50313149686512 H 0.0 **** 0.41
2742 H 37.30704108257831 7.495996905576971 34.69146693678154 H 0.0 **** 0.41
2743 O 40.779473754624526 10.924917669052917 38.63198475555318 O 0.0 **** -0.82
2744 H 41.414279335747125 11.564722344215383 38.27936538867134 H 0.0 **** 0.41
2745 H 40.824042246368634 11.320402606236783 39.592449680256586 H 0.0 **** 0.41
2746 O 32.87302213372726 38.48848016431846 9.897546899869425 O 0.0 **** -0.82
2747 H 33.020438611485524 37.5824759971372 10.274237637397206 H 0.0 **** 0.41
2748 H 32.03434239530556 38.912762706634915 10.278868256299504 H 0.0 **** 0.41
2749 O 10.436175306944023 26.536618968713604 49.04032164797811 O 0.0 **** -0.82
2750 H 10.661293606604978 27.54074876435856 48.92412009113528 H 0.0 **** 0.41
2751 H 11.097261672855879 26.006868250577156 48.46931588898131 H 0.0 **** 0.41
2752 O 9.023300757839031 32.63277583225433 29.392825149561858 O 0.0 **** -0.82
2753 H 9.810420859723713 31.999438599210443 29.080624667875565 H 0.0 **** 0.41
2754 H 8.122798996473556 32.25073293245352 29.018483979324277 H 0.0 **** 0.41
2755 O 47.393017801279235 24.634989699102405 4.626459556584045 O 0.0 **** -0.82
2756 H 47.76215786296115 25.58035638075449 4.726530187627532 H 0.0 **** 0.41
2757 H 46.91554899332631 24.287972969428264 5.448897819453741 H 0.0 **** 0.41
2758 O 38.49563382779202 26.180773198546706 19.12888022019458 O 0.0 **** -0.82
2759 H 38.85798424702302 26.839589543514588 19.80499450961148 H 0.0 **** 0.41
2760 H 37.9967252823135 26.60405780468599 18.371407828123694 H 0.0 **** 0.41
2761 O 25.06471779891863 45.80187308382701 45.201494375028204 O 0.0 **** -0.82
2762 H 25.924593443575368 45.5047839296196 45.68401311745573 H 0.0 **** 0.41
2763 H 25.233870567071776 46.73853471435674 44.82619880912749 H 0.0 **** 0.41
2764 O 5.8448134235894935 33.225103643597166 2.786431719429068 O 0.0 **** -0.82
2765 H 6.186886355873583 33.74975190320087 3.5644654205531703 H 0.0 **** 0.41
2766 H 5.026763213957757 32.72439726233463 3.160288094968702 H 0.0 **** 0.41
2767 O 22.802480419143553 39.74835301533628 39.658539138629045 O 0.0 **** -0.82
2768 H 23.053287965109163 40.252836344186306 38.853781613456576 H 0.0 **** 0.41
2769 H 22.94893906825999 38.70872127318565 39.387882343364176 H 0.0 **** 0.41
2770 O 45.69992384731102 11.223255237771111 21.548462979725574 O 0.0 **** -0.82
2771 H 45.79107751147123 12.137862211149898 22.008528828597 H 0.0 **** 0.41
2772 H 44.74850555174272 10.991356002994923 21.490642448528853 H 0.0 **** 0.41
2773 O 19.790926020339864 19.935259576318927 27.93366405165758 O 0.0 **** -0.82
2774 H 19.543916338497443 20.38138891887174 28.83187574354248 H 0.0 **** 0.41
2775 H 20.752234719705555 19.974514574001812 27.92662929573152 H 0.0 **** 0.41
2776 O 47.30872920742638 36.95377510970118 6.121945067690945 O 0.0 **** -0.82
2777 H 47.46721372326149 37.835980267438146 6.616420288562594 H 0.0 **** 0.41
2778 H 46.37735996628621 36.663039514460024 6.3285665203087405 H 0.0 **** 0.41
2779 O 7.72459676509338 37.14925286777241 7.00620849744379 O 0.0 **** -0.82
2780 H 8.173145404698325 36.78309211301742 6.137151090411471 H 0.0 **** 0.41
2781 H 7.199970195407444 36.42288339455838 7.479701938782816 H 0.0 **** 0.41
2782 O 42.93001374851647 13.826508069149208 31.464615739094626 O 0.0 **** -0.82
2783 H 42.32949110091973 13.105353132047195 31.81481782113066 H 0.0 **** 0.41
2784 H 42.40470936171557 14.71619655177834 31.466066672564807 H 0.0 **** 0.41
2785 O 40.27234716087653 22.470623039300765 20.944888173860473 O 0.0 **** -0.82
2786 H 39.44490983586176 23.201793967277897 20.907425511046586 H 0.0 **** 0.41
2787 H 39.996664020186216 21.64078779231321 21.457397754229962 H 0.0 **** 0.41
2788 O 12.259791915896034 15.480117154399736 48.666428041826215 O 0.0 **** -0.82
2789 H 11.591275784789612 15.588998148367153 47.879563680930225 H 0.0 **** 0.41
2790 H 12.372192258101359 14.447147637061434 48.733818073342015 H 0.0 **** 0.41
2791 O 15.954587105255088 40.78902347207328 36.86439637395124 O 0.0 **** -0.82
2792 H 16.04752593557767 41.630920455184544 37.46788900192793 H 0.0 **** 0.41
2793 H 16.9304439550733 40.8046235860614 36.676720570145186 H 0.0 **** 0.41
2794 O 11.010186286248254 0.7970664288978284 49.948570972324404 O 0.0 **** -0.82
2795 H 10.838572090826997 0.41903930012278323 49.04473373107924 H 0.0 **** 0.41
2796 H 11.456990458146183 1.7048791661760632 49.86207631517093 H 0.0 **** 0.41
2797 O 36.19801353113741 44.997264921891635 45.99258523290966 O 0.0 **** -0.82
2798 H 36.97184091158073 45.60586213475153 45.75464813013091 H 0.0 **** 0.41
2799 H 36.161148599655164 44.3422759079028 45.192298699815154 H 0.0 **** 0.41
2800 O 12.70021486885188 30.737782301963353 6.555788892203217 O 0.0 **** -0.82
2801 H 12.805677540922744 29.80271844803374 6.8099041698926 H 0.0 **** 0.41
2802 H 13.372260854906962 30.834548376982127 5.7509223236247795 H 0.0 **** 0.41
2803 O 6.077803263049887 36.23975385296276 12.39361472196633 O 0.0 **** -0.82
2804 H 6.2597832974585685 35.200165720915464 12.297079553085096 H 0.0 **** 0.41
2805 H 5.672171958238444 36.50712354548092 11.519780720011298 H 0.0 **** 0.41
2806 O 14.996473702782476 30.573360699323555 35.36440323667035 O 0.0 **** -0.82
2807 H 14.108080212196628 30.742145034049877 34.858051509445026 H 0.0 **** 0.41
2808 H 15.06673964394988 31.365565621049505 36.02846630018353 H 0.0 **** 0.41
2809 O 26.364548460960734 47.894759972851595 11.651160580899981 O 0.0 **** -0.82
2810 H 26.311751376913517 48.7006681140244 12.214864209964713 H 0.0 **** 0.41
2811 H 27.0089819178304 48.17207026535724 10.952356812624249 H 0.0 **** 0.41
2812 O 49.77835629003992 24.17747996813236 15.48828820784835 O 0.0 **** -0.82
2813 H 50.15239424486013 24.80041180729654 14.731566026971292 H 0.0 **** 0.41
2814 H 49.200239248592744 24.794618084337515 16.083123744331626 H 0.0 **** 0.41
2815 O 22.19081599592092 29.33607131092389 15.791469795940685 O 0.0 **** -0.82
2816 H 22.421722038493673 30.11349138788269 16.406481132986173 H 0.0 **** 0.41
2817 H 21.662725807794477 29.78239437461774 15.014883991403849 H 0.0 **** 0.41
2818 O 49.465625945764266 19.443669091933806 42.28702835033923 O 0.0 **** -0.82
2819 H 49.98177929351367 20.164522078024973 41.78692396324608 H 0.0 **** 0.41
2820 H 48.51002711948214 19.522068689882406 42.01788603070326 H 0.0 **** 0.41
2821 O 1.4424945747289826 48.10433274253647 20.31107976122628 O 0.0 **** -0.82
2822 H 0.9885168361797696 47.182790751732846 20.104877903090838 H 0.0 **** 0.41
2823 H 2.2775604103274247 47.89754029754278 20.914136841322613 H 0.0 **** 0.41
2824 O 15.999202669093378 15.07258675442481 41.40286201180894 O 0.0 **** -0.82
2825 H 16.703524636061786 15.641180804551762 41.86841941664098 H 0.0 **** 0.41
2826 H 16.26839935831239 14.125082588526672 41.6686351565788 H 0.0 **** 0.41
2827 O 17.616264590308617 1.3740122140645137 33.03057422085939 O 0.0 **** -0.82
2828 H 17.387463466767812 1.6460935033172848 33.99606921661908 H 0.0 **** 0.41
2829 H 18.29182134633608 0.6512899357855919 33.270877234156416 H 0.0 **** 0.41
2830 O 10.886298313675475 8.895605384372004 35.183967392278305 O 0.0 **** -0.82
2831 H 11.71809250836354 8.56660892378445 34.74800044984983 H 0.0 **** 0.41
2832 H 11.185733330252404 8.84534766044112 36.16915864648007 H 0.0 **** 0.41
2833 O 3.60102130758294 16.27568641347311 6.800919292038204 O 0.0 **** -0.82
2834 H 2.8591232428690887 16.208062646449463 6.056103818373046 H 0.0 **** 0.41
2835 H 4.29584505776657 15.597389339824616 6.526689689599926 H 0.0 **** 0.41
2836 O 21.01660354832415 12.019360634296206 37.883057523629624 O 0.0 **** -0.82
2837 H 21.631032038760665 11.906334426678349 37.10915309463069 H 0.0 **** 0.41
2838 H 21.5169113870607 12.531362944229791 38.56214301426616 H 0.0 **** 0.41
2839 O 9.32367195756595 2.645089460331959 5.757064005018659 O 0.0 **** -0.82
2840 H 9.709429626732444 1.843787833564583 5.257788572844251 H 0.0 **** 0.41
2841 H 10.059065336969432 3.379043438821435 5.7781280780421165 H 0.0 **** 0.41
2842 O 28.106879633314755 10.317187048681873 22.417985004788076 O 0.0 **** -0.82
2843 H 28.41062228163867 11.219995902072904 22.058671328967055 H 0.0 **** 0.41
2844 H 27.382416543417076 10.649329448628349 23.09081706736221 H 0.0 **** 0.41
2845 O 20.220036119160973 17.478569196732792 46.89604278216518 O 0.0 **** -0.82
2846 H 20.629722262807107 17.023942751399375 47.65929008610883 H 0.0 **** 0.41
2847 H 19.758549322414396 16.729292432955674 46.36295370818661 H 0.0 **** 0.41
2848 O 37.66430074483414 34.505144363484206 12.450437349818328 O 0.0 **** -0.82
2849 H 37.28806811820159 35.44538893107932 12.40597594875047 H 0.0 **** 0.41
2850 H 38.6930180056232 34.64256120335889 12.575422787969949 H 0.0 **** 0.41
2851 O 2.702014884922337 19.918461814033098 2.2698162112010998 O 0.0 **** -0.82
2852 H 2.7450581934541427 20.258700190169172 3.246436051077234 H 0.0 **** 0.41
2853 H 2.9949053255048605 18.960200108345827 2.296778506834619 H 0.0 **** 0.41
2854 O 17.14876298424818 0.05023617132275149 13.375976166745431 O 0.0 **** -0.82
2855 H 17.414542695058884 0.5875838470488972 14.22878955021281 H 0.0 **** 0.41
2856 H 16.82101795871921 0.7133874972271954 12.708224520506064 H 0.0 **** 0.41
2857 O 46.74674430851673 24.391660895943232 49.74364351322964 O 0.0 **** -0.82
2858 H 46.66945166680837 25.092487021749648 49.069529439536126 H 0.0 **** 0.41
2859 H 46.66075100756678 23.428395272596134 49.30565605201656 H 0.0 **** 0.41
2860 O 1.0519262355521732 11.433654824870331 27.784187536984057 O 0.0 **** -0.82
2861 H 1.8921751513313865 11.937278577535878 27.77254875831266 H 0.0 **** 0.41
2862 H 0.3393952847691537 12.150525452193897 27.61577328910662 H 0.0 **** 0.41
2863 O 32.06045803313597 41.64883320117667 26.07276019155817 O 0.0 **** -0.82
2864 H 33.02578877884263 41.93087758818305 26.307426716475796 H 0.0 **** 0.41
2865 H 31.4760257037325 42.11560810967569 26.72789419262614 H 0.0 **** 0.41
2866 O 22.50107231525978 6.5173799844631555 29.761729261990542 O 0.0 **** -0.82
2867 H 21.98334447153973 7.455150672171606 29.866592728252453 H 0.0 **** 0.41
2868 H 23.255876444667212 6.469232219991952 30.491008043892098 H 0.0 **** 0.41
2869 O 35.28852021051922 10.092232033686777 7.3660270834398816 O 0.0 **** -0.82
2870 H 34.8432054260328 9.370974378091674 7.946240215582357 H 0.0 **** 0.41
2871 H 34.5443697804951 10.76637448336588 7.243665864554593 H 0.0 **** 0.41
2872 O 26.761948905175178 28.11619180984086 31.89923868453151 O 0.0 **** -0.82
2873 H 26.245047135656257 28.457804500729917 31.02317894824015 H 0.0 **** 0.41
2874 H 26.277908675015002 27.252507805817142 32.25249426292583 H 0.0 **** 0.41
2875 O 19.613986556850847 35.33753881505648 48.648418989165656 O 0.0 **** -0.82
2876 H 20.10902414557077 34.82555424235766 47.89009805617617 H 0.0 **** 0.41
2877 H 20.22828001721936 36.13193112415349 48.79862180478544 H 0.0 **** 0.41
2878 O 0.4638653503145065 21.48618139389054 40.74983046062331 O 0.0 **** -0.82
2879 H 1.4531684942667908 21.691257007461513 40.84530126782743 H 0.0 **** 0.41
2880 H 0.23739929521646985 21.459629970786644 39.771613946094014 H 0.0 **** 0.41
2881 O 36.77014874101363 39.01727644173101 13.76563790911824 O 0.0 **** -0.82
2882 H 37.70188867757207 39.433702883239825 13.433805008990582 H 0.0 **** 0.41
2883 H 36.11011188320966 39.80219734035363 13.73978992076573 H 0.0 **** 0.41
2884 O 32.634704599552215 23.79087635276419 30.60829246218641 O 0.0 **** -0.82
2885 H 32.60505253583568 23.244751697870765 29.732231088452885 H 0.0 **** 0.41
2886 H 31.754525886092377 24.204460928069608 30.714228447622546 H 0.0 **** 0.41
2887 O 46.52833885968837 46.070756747235606 40.830037187322255 O 0.0 **** -0.82
2888 H 46.37409399985742 46.976789386519826 40.46782405361959 H 0.0 **** 0.41
2889 H 45.621854054360554 45.67478746738623 41.070274099695176 H 0.0 **** 0.41
2890 O 46.11986677912 28.098793809779934 3.09039103950547 O 0.0 **** -0.82
2891 H 46.82312390603019 27.976247965663866 3.8131178755706236 H 0.0 **** 0.41
2892 H 46.105175223957055 27.272375426465228 2.5176462684386465 H 0.0 **** 0.41
2893 O 44.84968007558388 47.31019855589711 30.22530275029929 O 0.0 **** -0.82
2894 H 44.77362356936525 48.20643287622063 29.851871444979295 H 0.0 **** 0.41
2895 H 45.02256670237993 46.71948651054648 29.460863223413405 H 0.0 **** 0.41
2896 O 40.201780430416356 13.39139272974076 23.241427868670556 O 0.0 **** -0.82
2897 H 40.4735884926073 14.301481244396614 23.60797460703857 H 0.0 **** 0.41
2898 H 39.266376557748785 13.217515113040182 22.840717956948765 H 0.0 **** 0.41
2899 O 20.557285295903085 3.1392729787651845 48.48743118286816 O 0.0 **** -0.82
2900 H 21.35806591654363 3.0776164040152167 49.14929594336959 H 0.0 **** 0.41
2901 H 20.83612094241155 3.772201561887101 47.74926852939158 H 0.0 **** 0.41
2902 O 24.220281903772886 41.23660529318728 26.404085278141707 O 0.0 **** -0.82
2903 H 24.929583268217765 40.53838520861224 26.567368663192134 H 0.0 **** 0.41
2904 H 24.0655658826658 41.76315216732869 27.228383509577093 H 0.0 **** 0.41
2905 O 34.775511839094705 36.59973869056291 39.82427097799135 O 0.0 **** -0.82
2906 H 33.90002026534202 36.46242134657065 39.30837488921967 H 0.0 **** 0.41
2907 H 34.71327258316382 37.56428812446878 40.18297878972076 H 0.0 **** 0.41
2908 O 12.446716043545859 11.82754509745795 8.82394310929516 O 0.0 **** -0.82
2909 H 12.70484321933795 11.519872290196332 7.90475412176101 H 0.0 **** 0.41
2910 H 12.990139502955955 12.675707706003438 8.942257749144717 H 0.0 **** 0.41
2911 O 41.62520360845606 31.412937605619092 27.338505044981147 O 0.0 **** -0.82
2912 H 42.15895432741794 32.21510942973717 27.070859629790526 H 0.0 **** 0.41
2913 H 41.21133099568156 31.140931387145585 26.45314470854341 H 0.0 **** 0.41
2914 O 43.38732377748447 16.470130414908287 14.751573939031275 O 0.0 **** -0.82
2915 H 43.48460453585657 16.80954004801599 15.743454006576485 H 0.0 **** 0.41
2916 H 43.73001279000982 17.183807229767194 14.180037579421338 H 0.0 **** 0.41
2917 O 31.820283958867524 15.658013430407406 9.746416442243131 O 0.0 **** -0.82
2918 H 32.60226878748502 16.096325888382527 9.260036502891836 H 0.0 **** 0.41
2919 H 31.726517541093337 16.191320757090757 10.58530599486992 H 0.0 **** 0.41
2920 O 13.274133386561264 36.91994605146539 32.14538384503368 O 0.0 **** -0.82
2921 H 13.659052596725562 37.167183103931 31.248791947266326 H 0.0 **** 0.41
2922 H 14.01528793590475 37.08073841979402 32.879612568601914 H 0.0 **** 0.41
2923 O 42.234063885235976 1.113046935737644 42.793423908033375 O 0.0 **** -0.82
2924 H 41.205158257142756 1.1098572516800749 42.630442776884394 H 0.0 **** 0.41
2925 H 42.52280581609618 1.8227423017726296 42.09893506430589 H 0.0 **** 0.41
2926 O 41.361391249592586 24.29008192824449 7.38398833694565 O 0.0 **** -0.82
2927 H 41.09462892206758 24.3008171797156 6.371505002252482 H 0.0 **** 0.41
2928 H 41.27456017008209 23.372724771378067 7.793550438541671 H 0.0 **** 0.41
2929 O 5.915706086448893 17.4222918185057 3.0977058801681205 O 0.0 **** -0.82
2930 H 4.923072217402615 17.27515659388609 2.8776043936670996 H 0.0 **** 0.41
2931 H 5.9416479824790205 18.034024007708062 3.9110932736768866 H 0.0 **** 0.41
2932 O 28.067181823006752 33.34048409126001 7.714621142341477 O 0.0 **** -0.82
2933 H 28.4681275110175 33.026701907342584 6.845924481452607 H 0.0 **** 0.41
2934 H 28.894234579188495 33.65802567460378 8.275423591798624 H 0.0 **** 0.41
2935 O 26.22007006628993 3.6533290691524436 49.396469177385676 O 0.0 **** -0.82
2936 H 27.16008977693068 3.619581268426822 49.07543866264457 H 0.0 **** 0.41
2937 H 26.220326359780504 3.4054277733267417 50.37367906351483 H 0.0 **** 0.41
2938 O 31.055935819456383 25.578065082126177 44.65990637731478 O 0.0 **** -0.82
2939 H 31.830356393462953 25.90248152072824 43.98190993283619 H 0.0 **** 0.41
2940 H 30.344965020198448 25.106076855478165 44.064600738219596 H 0.0 **** 0.41
2941 O 18.064374704993302 10.074044160862725 26.39459526977272 O 0.0 **** -0.82
2942 H 17.838203278178746 9.898588337221263 25.447258014027767 H 0.0 **** 0.41
2943 H 17.73710889165625 11.059987679790027 26.511450933079704 H 0.0 **** 0.41
2944 O 48.457890987309945 46.49299582731105 6.499009768289454 O 0.0 **** -0.82
2945 H 49.30043316174468 45.924805633927804 6.7854401038520145 H 0.0 **** 0.41
2946 H 47.783689902431185 45.99260504272215 7.119090530216902 H 0.0 **** 0.41
2947 O 17.417547762579442 4.6278691550193045 7.894471324803263 O 0.0 **** -0.82
2948 H 17.83534785971366 3.944357415564454 8.529787703504809 H 0.0 **** 0.41
2949 H 18.186001102157928 5.200531841418751 7.506975682495565 H 0.0 **** 0.41
2950 O 3.857517128473944 6.967386288882386 49.17943938258336 O 0.0 **** -0.82
2951 H 3.2326717669186777 7.745302150484316 49.27686073612175 H 0.0 **** 0.41
2952 H 4.414461778151079 7.024217623150727 50.07864915759666 H 0.0 **** 0.41
2953 O 42.33308497475845 47.9106470445976 13.158706960685008 O 0.0 **** -0.82
2954 H 43.26017723831234 47.59740613614901 13.456357573408036 H 0.0 **** 0.41
2955 H 41.948778948848016 47.031953183319615 12.801404059477134 H 0.0 **** 0.41
2956 O 1.9203391841277266 37.37447105620697 32.49204691985846 O 0.0 **** -0.82
2957 H 2.896080759267427 37.37979884021605 32.257166452563695 H 0.0 **** 0.41
2958 H 1.7850978756317133 36.70748786295539 33.254310327220686 H 0.0 **** 0.41
2959 O 14.779958368027057 44.281180982799555 44.22544053783087 O 0.0 **** -0.82
2960 H 13.928134151477472 44.302832057131205 44.682072142227284 H 0.0 **** 0.41
2961 H 14.553787079230561 45.14078816135007 43.62491760884803 H 0.0 **** 0.41
2962 O 18.950203168835195 24.546256307236533 0.11410568142326127 O 0.0 **** -0.82
2963 H 18.49808196004349 25.378492376000967 -0.22060076394342332 H 0.0 **** 0.41
2964 H 18.401564034444725 24.21170063541338 0.8909341321317612 H 0.0 **** 0.41
2965 O 20.849912750469475 2.7264055713443427 18.740959547037235 O 0.0 **** -0.82
2966 H 20.059359222344266 2.214474545479118 18.96724986823922 H 0.0 **** 0.41
2967 H 21.5339328481065 2.004552414007292 18.58895237277156 H 0.0 **** 0.41
2968 O 19.834096931046624 32.59749534059993 23.603224958937297 O 0.0 **** -0.82
2969 H 19.403385007521884 33.12958007921634 24.373764562021577 H 0.0 **** 0.41
2970 H 20.695434366030643 32.27724956125309 23.967393428776056 H 0.0 **** 0.41
2971 O 8.565983218363142 4.5974395642441195 18.396576725639452 O 0.0 **** -0.82
2972 H 8.18834718567432 5.162674773380402 19.076723396336906 H 0.0 **** 0.41
2973 H 8.709327776606088 5.240762298927777 17.673433119259958 H 0.0 **** 0.41
2974 O 0.4645688730264368 16.266723982408433 16.32335095921727 O 0.0 **** -0.82
2975 H 0.4729332767189547 15.388704907799456 16.859752752350907 H 0.0 **** 0.41
2976 H -0.2866537893631431 16.123994965106228 15.709485866789718 H 0.0 **** 0.41
2977 O 23.004171330771456 2.340468327602331 29.91877401827931 O 0.0 **** -0.82
2978 H 22.281368395960065 2.980198138466797 29.722008646900143 H 0.0 **** 0.41
2979 H 23.77894236104825 2.480639127153517 29.24467351085043 H 0.0 **** 0.41
2980 O 41.04517776153215 22.70246706074538 18.15644551882506 O 0.0 **** -0.82
2981 H 41.97564150228897 22.746125979652682 18.248774527379545 H 0.0 **** 0.41
2982 H 40.724638335517426 22.45010286504389 19.089224564010454 H 0.0 **** 0.41
2983 O 39.027891683894346 14.312902040070881 46.161299589008586 O 0.0 **** -0.82
2984 H 38.10538842684329 14.523218724463405 45.821548923628875 H 0.0 **** 0.41
2985 H 39.70068071156821 14.943157083343095 45.670441888508996 H 0.0 **** 0.41
2986 O 47.232335980264224 4.32821413171002 5.8030293309674565 O 0.0 **** -0.82
2987 H 46.703381713174494 3.5129703430893855 5.582321590133705 H 0.0 **** 0.41
2988 H 48.12213335091964 4.030641661874611 6.263433078707384 H 0.0 **** 0.41
2989 O 20.35248707821435 26.240395906556287 16.385237401045515 O 0.0 **** -0.82
2990 H 21.013427893268098 26.95222985081668 16.157705371932735 H 0.0 **** 0.41
2991 H 20.578841771819338 25.383503561458696 15.837523018269145 H 0.0 **** 0.41
2992 O 37.93160827306906 33.83410284943075 16.54786569942875 O 0.0 **** -0.82
2993 H 38.422413208872875 34.611060022523084 17.00957187435128 H 0.0 **** 0.41
2994 H 38.61192105844273 33.51280909036591 15.884240685250013 H 0.0 **** 0.41
2995 O 47.749360715265894 1.5240390315433245 32.71945593652106 O 0.0 **** -0.82
2996 H 48.424119430745826 2.266480773154292 32.848600491268044 H 0.0 **** 0.41
2997 H 47.05995045977419 1.512723181594943 33.47202592206901 H 0.0 **** 0.41
2998 O 22.78224430526386 31.75178901209545 26.745166520752843 O 0.0 **** -0.82
2999 H 23.368083741406224 31.197185111480074 26.20877776939036 H 0.0 **** 0.41
3000 H 21.972212473455414 31.16566152855973 26.87313732627745 H 0.0 **** 0.41
3001 O 19.060642820013992 2.1972676567372744 1.8391571992548066 O 0.0 **** -0.82
3002 H 18.35031449708098 2.9119787496729757 1.8785474137845384 H 0.0 **** 0.41
3003 H 18.93286040590441 1.6962393789250285 0.9595760371644815 H 0.0 **** 0.41
3004 O 24.704284195147828 10.686540400034076 36.53258407571249 O 0.0 **** -0.82
3005 H 24.879596566439474 9.755006540148806 36.81532978743067 H 0.0 **** 0.41
3006 H 23.769512638497694 10.606368948908077 36.16130693456209 H 0.0 **** 0.41
3007 O 1.255718667638476 2.3493507244141227 40.527128041863875 O 0.0 **** -0.82
3008 H 2.1884453425443553 2.705025367177356 40.777630155325426 H 0.0 **** 0.41
3009 H 1.0770878324769484 1.7307668289466918 41.314436467319865 H 0.0 **** 0.41
3010 O 25.101693795134352 30.82660291047191 44.649985088189325 O 0.0 **** -0.82
3011 H 25.462250924424808 30.497809786497545 45.54383277126065 H 0.0 **** 0.41
3012 H 24.46213823200361 30.17422503773587 44.254640335636175 H 0.0 **** 0.41
3013 O 1.291319159024373 46.62921356944924 43.486084174203484 O 0.0 **** -0.82
3014 H 0.4254717867350461 46.788326401112194 44.00396936512435 H 0.0 **** 0.41
3015 H 1.795992943419847 45.93203729077168 43.985205774414474 H 0.0 **** 0.41
3016 O 45.795003895574844 44.566749225346925 12.83895593237145 O 0.0 **** -0.82
3017 H 45.76158903685701 44.99449110712476 11.920724002138034 H 0.0 **** 0.41
3018 H 46.28990557095006 43.67734912216764 12.756243244696238 H 0.0 **** 0.41
3019 O 3.8084941431757144 1.6634205587294177 48.488779240301376 O 0.0 **** -0.82
3020 H 4.258936372711759 1.4981910509927154 49.36209049141227 H 0.0 **** 0.41
3021 H 3.5445650313230246 2.642588362375973 48.3185113755957 H 0.0 **** 0.41
3022 O 33.33775358001594 27.06654448241718 30.08079657725803 O 0.0 **** -0.82
3023 H 34.271098113715944 27.43398780025352 30.174985562995197 H 0.0 **** 0.41
3024 H 33.06993121395571 26.698115441838635 31.01275947456188 H 0.0 **** 0.41
3025 O 34.97869118314691 13.783496691785084 18.652869194208822 O 0.0 **** -0.82
3026 H 35.90272434428793 13.400962611235041 18.877770203285063 H 0.0 **** 0.41
3027 H 35.01105932919225 14.785349429910159 18.777729444963356 H 0.0 **** 0.41
3028 O 7.46513704370355 22.168618284697374 40.549588133035755 O 0.0 **** -0.82
3029 H 7.171514221532014 23.058303213239412 40.95221988640329 H 0.0 **** 0.41
3030 H 8.460511662086333 22.047415645407725 40.611189604044256 H 0.0 **** 0.41
3031 O 25.692506612984022 43.01602469265299 11.77817314410466 O 0.0 **** -0.82
3032 H 24.966618582950073 43.47937934706998 11.24355277612343 H 0.0 **** 0.41
3033 H 25.384468302551618 42.127770873846885 12.115335293908547 H 0.0 **** 0.41
3034 O 16.392531916773027 40.41208543105511 29.536754133375815 O 0.0 **** -0.82
3035 H 15.466675863985273 40.82693832530481 29.202105584404997 H 0.0 **** 0.41
3036 H 16.98687111090847 40.6294962352037 28.712792003185093 H 0.0 **** 0.41
3037 O 18.893260865084223 6.659931741745708 6.49423673574073 O 0.0 **** -0.82
3038 H 19.680277423213568 7.1849306267624655 6.70931834331378 H 0.0 **** 0.41
3039 H 18.882189562312337 6.771496665948431 5.48992408578895 H 0.0 **** 0.41
3040 O 36.74016922072397 13.463781781770013 30.865440430187363 O 0.0 **** -0.82
3041 H 37.55473987436052 13.85065631274442 30.42372715369268 H 0.0 **** 0.41
3042 H 37.04101669012191 13.27793910845798 31.78820923158011 H 0.0 **** 0.41
3043 O 11.390744312723852 46.554791632849124 25.191429941941024 O 0.0 **** -0.82
3044 H 12.144743110483756 45.81846181111612 25.186956010446465 H 0.0 **** 0.41
3045 H 11.943058166437778 47.356045547408115 24.990504048160886 H 0.0 **** 0.41
3046 O 19.743316161790514 22.029003935229365 47.125142238253005 O 0.0 **** -0.82
3047 H 20.52997111278695 21.872655212932994 46.50637822756304 H 0.0 **** 0.41
3048 H 19.449648379929975 21.1475591949316 47.544583218736086 H 0.0 **** 0.41
3049 O 43.675910002227006 33.83716997790371 8.35624765622557 O 0.0 **** -0.82
3050 H 43.066333208484586 33.04876814762578 8.248568294278734 H 0.0 **** 0.41
3051 H 44.57893744185645 33.383666894347506 8.648655504264653 H 0.0 **** 0.41
3052 O 39.756884420010465 16.768134593703536 42.625827638885056 O 0.0 **** -0.82
3053 H 39.344140028921146 17.641481359484636 42.78255004362361 H 0.0 **** 0.41
3054 H 40.57763986334221 16.994533774062095 42.010506411857506 H 0.0 **** 0.41
3055 O 3.5882342674135543 8.430387204699096 44.97368364094016 O 0.0 **** -0.82
3056 H 2.7228600931379177 8.74060227453198 44.57566570137115 H 0.0 **** 0.41
3057 H 4.305553691413877 9.184990724823718 44.85750176836165 H 0.0 **** 0.41
3058 O 10.095138620805017 2.456553841398204 23.19150034255094 O 0.0 **** -0.82
3059 H 9.272108073026068 2.2849286395778208 22.667417873195397 H 0.0 **** 0.41
3060 H 10.83159506705293 2.000318826197237 22.6532590225739 H 0.0 **** 0.41
3061 O 10.114581397603473 12.594431600541114 12.709142290203737 O 0.0 **** -0.82
3062 H 10.629216862408889 13.38632773692239 13.011156374768717 H 0.0 **** 0.41
3063 H 10.238564684648566 12.580405737563261 11.715258661568974 H 0.0 **** 0.41
3064 O 29.85932842734442 47.68690930903176 46.65957456325561 O 0.0 **** -0.82
3065 H 30.23315398970688 47.30987890931698 47.51297268758459 H 0.0 **** 0.41
3066 H 30.195469431446085 47.0134047290399 45.95930529546047 H 0.0 **** 0.41
3067 O 39.15702546046749 40.20873864657087 12.883097017719116 O 0.0 **** -0.82
3068 H 39.50729211492354 41.0310960041262 12.433215122824443 H 0.0 **** 0.41
3069 H 39.51384019005814 39.4630845401177 12.283031974766262 H 0.0 **** 0.41
3070 O 43.59453352588124 48.561381246986286 19.73911754291861 O 0.0 **** -0.82
3071 H 44.10566110016624 48.41378344393295 20.59483628089054 H 0.0 **** 0.41
3072 H 43.96143216786877 49.34370350828933 19.30945230342845 H 0.0 **** 0.41
3073 O 23.439215482859666 13.700377129250093 38.400044648243146 O 0.0 **** -0.82
3074 H 24.27576472842412 13.17466692769177 38.11799174209857 H 0.0 **** 0.41
3075 H 23.650523033196635 14.660487504867474 38.23424870661261 H 0.0 **** 0.41
3076 O 37.351660117957465 5.468339719436493 38.03709030612366 O 0.0 **** -0.82
3077 H 37.92142047310142 5.6174801448763105 38.812924887892066 H 0.0 **** 0.41
3078 H 37.828787042311546 4.9621527405200325 37.245066316436876 H 0.0 **** 0.41
3079 O 3.1534248279577803 27.638929453796038 43.783725448454085 O 0.0 **** -0.82
3080 H 2.3809944642736007 26.989324985719048 44.03567016822397 H 0.0 **** 0.41
3081 H 3.8738472297783826 27.214199197852427 44.33168815344844 H 0.0 **** 0.41
3082 O 8.503168578390811 26.6523317706755 6.084722924287682 O 0.0 **** -0.82
3083 H 8.00653713527905 27.577012389207994 5.90427040305314 H 0.0 **** 0.41
3084 H 9.41027439180262 26.82322511009179 5.607669445182928 H 0.0 **** 0.41
3085 O 8.24691884057539 44.19937012148738 13.916256644818814 O 0.0 **** -0.82
3086 H 7.487298953052125 43.52737849595389 14.1074415202197 H 0.0 **** 0.41
3087 H 9.044212184945408 43.64964406950928 14.199911705276627 H 0.0 **** 0.41
3088 O 4.2738823454057275 49.922304635310105 12.064873867128727 O 0.0 **** -0.82
3089 H 4.573405689371929 49.1634307776404 12.661972502672947 H 0.0 **** 0.41
3090 H 3.373737745659116 49.693951495541626 11.729426330838054 H 0.0 **** 0.41
3091 O 23.779567736115467 47.41095301760158 41.42303891133487 O 0.0 **** -0.82
3092 H 23.27774134852463 47.059968069700176 40.672834122086726 H 0.0 **** 0.41
3093 H 24.38907405089958 46.67721482558537 41.64978156666443 H 0.0 **** 0.41
3094 O 39.84080658017159 36.993209990821285 26.154407385834233 O 0.0 **** -0.82
3095 H 40.32710169141399 37.62007060169847 25.49027100654582 H 0.0 **** 0.41
3096 H 39.58828222590397 37.7202227717909 26.82225768695715 H 0.0 **** 0.41
3097 O 7.270436852388308 43.606942474184926 25.04418532865801 O 0.0 **** -0.82
3098 H 8.132043577301872 44.02499597772371 25.315805769186557 H 0.0 **** 0.41
3099 H 6.634038612306668 44.041540433672075 25.697979352454894 H 0.0 **** 0.41
3100 O 16.627225350631804 1.3907130101836387 35.57788992203313 O 0.0 **** -0.82
3101 H 17.276765849977906 2.144718239727169 35.6643495050691 H 0.0 **** 0.41
3102 H 15.754951200491774 1.8384974545870563 35.824186524240545 H 0.0 **** 0.41
3103 O 10.5729511426007 42.70899244475711 1.220140136119376 O 0.0 **** -0.82
3104 H 10.13789678283787 43.164698871613396 0.42831230095689676 H 0.0 **** 0.41
3105 H 11.503678901408072 42.56679151911459 0.8364309233994547 H 0.0 **** 0.41
3106 O 27.26067904425173 1.0951637550696178 38.581185553705986 O 0.0 **** -0.82
3107 H 26.73048139089559 0.2691128050733068 39.04934608257856 H 0.0 **** 0.41
3108 H 27.08116269279526 0.9863569688016359 37.61287947681973 H 0.0 **** 0.41
3109 O 17.4580127459962 48.310926960775774 1.0571668937162144 O 0.0 **** -0.82
3110 H 16.64658017004075 48.26518428034095 0.4643395869760667 H 0.0 **** 0.41
3111 H 18.273973154284903 48.02706895295849 0.48077299600164736 H 0.0 **** 0.41
3112 O 17.60555726683566 13.49842450741945 44.30700739863183 O 0.0 **** -0.82
3113 H 17.837030368432384 13.062836414776086 43.43731700600895 H 0.0 **** 0.41
3114 H 18.4815810794779 13.511441327457206 44.80909010512669 H 0.0 **** 0.41
3115 O 9.708373723685035 17.416473031525385 41.04001099255382 O 0.0 **** -0.82
3116 H 8.839779442066185 16.906044928865214 41.0768727077626 H 0.0 **** 0.41
3117 H 9.515160509854034 18.372945545708205 41.392626077617024 H 0.0 **** 0.41
3118 O 23.670403938263544 4.103766936341252 4.723625712650282 O 0.0 **** -0.82
3119 H 22.9283589183594 3.6996822947594765 5.332943241406987 H 0.0 **** 0.41
3120 H 24.316460326860273 4.294724423043746 5.5045455746291125 H 0.0 **** 0.41
3121 O 14.60087251251579 35.16641257362066 1.223267119103248 O 0.0 **** -0.82
3122 H 13.770859250580887 35.76124445494121 1.262646347762093 H 0.0 **** 0.41
3123 H 15.248044082331987 35.51021308981292 1.9302907615723583 H 0.0 **** 0.41
3124 O 31.590630217687732 6.606650316225033 46.58921632261113 O 0.0 **** -0.82
3125 H 31.706045580927793 7.100898358462141 45.747064225699454 H 0.0 **** 0.41
3126 H 31.99411191809746 5.703058522758537 46.45143897685807 H 0.0 **** 0.41
3127 O 19.77447318264984 32.18141540614308 40.59209124911857 O 0.0 **** -0.82
3128 H 20.637916900241947 32.237055611468634 41.128094778395095 H 0.0 **** 0.41
3129 H 19.024916803154575 32.63670841591658 41.04895066463431 H 0.0 **** 0.41
3130 O 2.8851403532160873 22.59162591496363 41.047433679665204 O 0.0 **** -0.82
3131 H 3.5709975711765978 21.895307399688388 40.9863435277991 H 0.0 **** 0.41
3132 H 3.3090281504273804 23.216673325111397 41.63875420228593 H 0.0 **** 0.41
3133 O 40.82418463472354 9.474727459443038 0.512909537047328 O 0.0 **** -0.82
3134 H 40.83669635637786 10.342831640500926 1.05462345419474 H 0.0 **** 0.41
3135 H 41.82100852634553 9.369579487512583 0.2304864763604968 H 0.0 **** 0.41
3136 O 27.426439084556126 48.174754854244654 22.706186188789957 O 0.0 **** -0.82
3137 H 27.058489860576106 49.08792039459752 22.49703032573025 H 0.0 **** 0.41
3138 H 28.408205341841782 48.34244390645581 22.95162260108502 H 0.0 **** 0.41
3139 O 19.738139166312624 11.647394857091998 17.081588709859005 O 0.0 **** -0.82
3140 H 19.715675939967912 12.682832173972438 17.198375440326714 H 0.0 **** 0.41
3141 H 19.39521064424974 11.549237196945116 16.094274512149006 H 0.0 **** 0.41
3142 O 40.71069284439932 13.518803140203866 48.145566017510795 O 0.0 **** -0.82
3143 H 40.10681188974904 13.985375769672734 47.52773644329635 H 0.0 **** 0.41
3144 H 40.766622583447266 12.615876082290836 47.70475084813346 H 0.0 **** 0.41
3145 O 44.24636107529333 44.4238905143385 6.350076857131573 O 0.0 **** -0.82
3146 H 43.97189581746792 43.52689052899142 6.679903773425098 H 0.0 **** 0.41
3147 H 43.31990929872474 44.88077966846834 6.406239463972542 H 0.0 **** 0.41
3148 O 1.3829065150489868 25.702354934944353 44.701205716026074 O 0.0 **** -0.82
3149 H 1.1226222442418674 25.630539307387174 45.691438889393375 H 0.0 **** 0.41
3150 H 2.1331161200107047 25.036334532056426 44.48187640884243 H 0.0 **** 0.41
3151 O 25.435332137523677 30.649414351200846 25.459802521188493 O 0.0 **** -0.82
3152 H 24.85575909856656 29.825135106561234 25.654183748594207 H 0.0 **** 0.41
3153 H 25.983183289228105 30.42850703023431 24.62680811766809 H 0.0 **** 0.41
3154 O 37.89369154768734 4.7564582004695595 14.657381067630126 O 0.0 **** -0.82
3155 H 37.24773459237751 4.082707147236782 14.382162024660659 H 0.0 **** 0.41
3156 H 37.50580873922789 5.012195030438704 15.553174175419997 H 0.0 **** 0.41
3157 O 3.0088947310800833 20.22883989764905 18.60038201830632 O 0.0 **** -0.82
3158 H 3.656687949984459 19.66243740085844 17.988574039771912 H 0.0 **** 0.41
3159 H 2.813494587752075 19.58240948866562 19.364865915960436 H 0.0 **** 0.41
3160 O 47.067034064861645 38.1517683195818 38.29678336108658 O 0.0 **** -0.82
3161 H 46.53139296488696 37.367764555242616 38.083214274082685 H 0.0 **** 0.41
3162 H 46.43867013569556 38.8537520236669 38.67615144822206 H 0.0 **** 0.41
3163 O 31.304029363836275 12.669049910410443 9.469309524941272 O 0.0 **** -0.82
3164 H 30.274849106901854 12.588652554287377 9.562065157602964 H 0.0 **** 0.41
3165 H 31.517111056529565 13.651754317224379 9.555066482221774 H 0.0 **** 0.41
3166 O 41.272254009731185 19.255098311362772 34.55937998495135 O 0.0 **** -0.82
3167 H 40.57816436503921 19.56054217640904 35.219629010840805 H 0.0 **** 0.41
3168 H 41.12150160718979 19.699269498528622 33.62129856358407 H 0.0 **** 0.41
3169 O 45.68416698837536 7.84624965539467 11.96164262265656 O 0.0 **** -0.82
3170 H 44.84481847901186 7.843216224138734 12.523343313000092 H 0.0 **** 0.41
3171 H 45.64167140570084 7.088359419175799 11.272788412823912 H 0.0 **** 0.41
3172 O 23.843589035676388 23.740720934305067 24.28737081056687 O 0.0 **** -0.82
3173 H 24.67589984464712 23.159215462055407 24.398574920118918 H 0.0 **** 0.41
3174 H 23.396080046426277 23.42483029495436 23.384518849580076 H 0.0 **** 0.41
3175 O 7.77201241859153 13.88896595730904 33.9664038981914 O 0.0 **** -0.82
3176 H 7.146820960555097 14.658195922943634 33.80118283536487 H 0.0 **** 0.41
3177 H 7.5683074660771865 13.381535374062885 34.78600290453272 H 0.0 **** 0.41
3178 O 34.20061981846373 5.156467058962193 8.947010608630984 O 0.0 **** -0.82
3179 H 33.413975133584856 5.549095417614062 8.34263498087241 H 0.0 **** 0.41
3180 H 35.08929500426256 5.007134071353079 8.405431906835396 H 0.0 **** 0.41
3181 O 48.191064416580005 13.726761830941237 14.656511634066803 O 0.0 **** -0.82
3182 H 47.837913329254775 13.556633178059172 15.575437759856499 H 0.0 **** 0.41
3183 H 47.98679307501838 14.679074353975905 14.560109680759567 H 0.0 **** 0.41
3184 O 17.941223022540015 4.08002985247969 3.650180497742909 O 0.0 **** -0.82
3185 H 18.396737258003505 3.2786844726345805 4.00674258317278 H 0.0 **** 0.41
3186 H 16.936362912033175 3.8144849872718396 3.5178253662515218 H 0.0 **** 0.41
3187 O 45.75633568455837 17.728586834205515 32.05227623789462 O 0.0 **** -0.82
3188 H 45.492844636202854 17.468142623762805 32.96798861437905 H 0.0 **** 0.41
3189 H 45.225093205629015 17.304747141242583 31.29552754540029 H 0.0 **** 0.41
3190 O 6.037949053353291 15.020287351152653 1.6558081996621468 O 0.0 **** -0.82
3191 H 6.018384932903575 15.93927419442941 2.1118423272366798 H 0.0 **** 0.41
3192 H 6.891934678508552 14.559483804995683 1.9463713204898099 H 0.0 **** 0.41
3193 O 36.46640886313262 13.519553224215343 42.887873664469815 O 0.0 **** -0.82
3194 H 37.29608587225889 12.895007898112965 43.14013805031003 H 0.0 **** 0.41
3195 H 36.68298375528042 14.497614448465598 42.90983367258762 H 0.0 **** 0.41
3196 O 25.90432445287167 20.966734335450255 29.77729846484843 O 0.0 **** -0.82
3197 H 24.990453786554575 20.659725049025727 29.60486935972591 H 0.0 **** 0.41
3198 H 26.48906078783924 20.31693100888354 30.369857254242035 H 0.0 **** 0.41
3199 O 38.267831769978535 32.83552876016406 23.40673681871229 O 0.0 **** -0.82
3200 H 38.994602941912476 33.14736722490453 22.816695275735388 H 0.0 **** 0.41
3201 H 37.446571629800395 33.287724646070345 23.079830351176124 H 0.0 **** 0.41
3202 O 32.883645774691914 33.08157114627776 37.214972692815174 O 0.0 **** -0.82
3203 H 32.630749991804635 33.431774482409665 36.30327638980019 H 0.0 **** 0.41
3204 H 33.88957587703095 32.782901504481096 37.052464243797964 H 0.0 **** 0.41
3205 O 40.612774109801634 5.25275300821351 21.82675086069032 O 0.0 **** -0.82
3206 H 41.22461821411865 5.422874588841118 22.586821372971805 H 0.0 **** 0.41
3207 H 41.16858879102161 5.371464325319096 20.98817731065527 H 0.0 **** 0.41
3208 O 18.975448645214115 10.11753828127246 42.88655786536224 O 0.0 **** -0.82
3209 H 18.85573218761658 10.959130642302357 42.32759500116461 H 0.0 **** 0.41
3210 H 19.64297347419162 9.482276400233857 42.386340692878846 H 0.0 **** 0.41
3211 O 41.19144095841289 47.18042849034867 45.63995545341315 O 0.0 **** -0.82
3212 H 41.677572871356915 47.63650173347543 46.36304524094526 H 0.0 **** 0.41
3213 H 41.58567098136603 47.46054604496287 44.77014914180534 H 0.0 **** 0.41
3214 O 49.85096214077669 41.184405853758165 5.200687052440216 O 0.0 **** -0.82
3215 H 49.12312460821102 41.831719327862544 4.844106024319094 H 0.0 **** 0.41
3216 H 49.34834936552825 40.405735829981005 5.674055815587546 H 0.0 **** 0.41
3217 O 6.093706083970986 44.72650928385247 22.6143598732358 O 0.0 **** -0.82
3218 H 6.609933974395219 44.508566110586074 21.761702608957275 H 0.0 **** 0.41
3219 H 6.532348015835609 44.12278353950291 23.319287304047187 H 0.0 **** 0.41
3220 O 26.460647344586516 3.0903732665343 1.921949697391085 O 0.0 **** -0.82
3221 H 25.733878185226537 2.670494693807953 2.453747135403276 H 0.0 **** 0.41
3222 H 26.548376072834593 3.913514602664378 2.4768216760087256 H 0.0 **** 0.41
3223 O 0.4863077145895929 40.51225758938784 10.393242179736806 O 0.0 **** -0.82
3224 H 0.7742343982260635 41.179376401446234 11.152201375448051 H 0.0 **** 0.41
3225 H -0.42834246994228664 40.20114175443008 10.644668820295433 H 0.0 **** 0.41
3226 O 5.102030018858247 29.449147949981224 30.280306847053957 O 0.0 **** -0.82
3227 H 4.1527036562234425 29.120787306964903 30.217819429684358 H 0.0 **** 0.41
3228 H 5.254645575108265 29.374974903317685 31.280054657545673 H 0.0 **** 0.41
3229 O 43.883719851897936 39.21724632106305 41.574500437571594 O 0.0 **** -0.82
3230 H 44.840319222250905 39.005637749711774 41.797236412235414 H 0.0 **** 0.41
3231 H 43.3501815322958 38.40459646512652 41.903635056419226 H 0.0 **** 0.41
3232 O 41.102147237917706 38.986887878481255 40.048185297378105 O 0.0 **** -0.82
3233 H 41.63278518335162 39.81946059589253 40.332075469383774 H 0.0 **** 0.41
3234 H 41.49357044743457 38.35704767515412 40.71029922199158 H 0.0 **** 0.41
3235 O 33.904350227397494 5.31849696906645 15.717312583480192 O 0.0 **** -0.82
3236 H 33.33880684382475 4.500873942988191 15.59830867399347 H 0.0 **** 0.41
3237 H 33.869902243215755 5.807211701066017 14.808751576397349 H 0.0 **** 0.41
3238 O 34.27575135689624 11.09982164727699 19.41568586647128 O 0.0 **** -0.82
3239 H 33.99032498135796 11.824385284183265 18.806335730400313 H 0.0 **** 0.41
3240 H 34.614640519905606 10.324018187441235 18.753669381089292 H 0.0 **** 0.41
3241 O 8.041124890486321 7.750908696341057 7.700675183052286 O 0.0 **** -0.82
3242 H 7.744343724612817 6.816893621291541 7.468199763768104 H 0.0 **** 0.41
3243 H 9.001525037496606 7.7100734422100885 7.3152809250744895 H 0.0 **** 0.41
3244 O 44.64706799183994 26.47751586423371 27.190767213768822 O 0.0 **** -0.82
3245 H 44.127811327937465 27.31260148958023 26.906784394420413 H 0.0 **** 0.41
3246 H 44.45875330255806 26.205274283618486 28.169773038346946 H 0.0 **** 0.41
3247 O 5.930374876620758 7.868682665136028 15.529549361308225 O 0.0 **** -0.82
3248 H 5.262943927824047 8.566666587768147 15.292492689960536 H 0.0 **** 0.41
3249 H 5.433259298036418 7.482422188338546 16.298601309894917 H 0.0 **** 0.41
3250 O 4.170259599927909 1.8985851331135208 33.005293235665384 O 0.0 **** -0.82
3251 H 4.563654050755112 1.3014395917445754 32.23428391333456 H 0.0 **** 0.41
3252 H 3.758841329998776 2.7186191812283695 32.66333739584797 H 0.0 **** 0.41
3253 O 18.68896393751832 16.358094071137593 35.79684376925082 O 0.0 **** -0.82
3254 H 18.290423815999198 16.973996918660895 36.49528048752825 H 0.0 **** 0.41
3255 H 19.655417289459926 16.472935921036118 36.120012123171975 H 0.0 **** 0.41
3256 O 31.170734182360356 13.507545859589165 2.1198434494877922 O 0.0 **** -0.82
3257 H 31.919252356994168 14.226983761419191 2.094281260363334 H 0.0 **** 0.41
3258 H 30.791872964983856 13.324401026215305 1.1791484367233995 H 0.0 **** 0.41
3259 O 8.543571441689066 15.746283803948913 36.620234292561946 O 0.0 **** -0.82
3260 H 8.318036060518995 16.326799283621583 35.82453995376601 H 0.0 **** 0.41
3261 H 8.2696415509186 16.186114151111298 37.52467309131887 H 0.0 **** 0.41
3262 O 37.18135791106902 22.96289838155282 45.993624266959394 O 0.0 **** -0.82
3263 H 36.58518538924345 22.182697085397763 45.75027517211285 H 0.0 **** 0.41
3264 H 36.62066212667064 23.675367169318985 46.457967143916 H 0.0 **** 0.41
3265 O 44.37583504278532 37.4337068813307 29.380071746154275 O 0.0 **** -0.82
3266 H 45.148128978916546 37.04933195097825 29.913969170873884 H 0.0 **** 0.41
3267 H 43.55134668707825 36.86928988016868 29.547086362947844 H 0.0 **** 0.41
3268 O 7.083665468004362 36.6259530508031 49.406145907881076 O 0.0 **** -0.82
3269 H 6.795016319967516 37.291601731189836 48.65727740252496 H 0.0 **** 0.41
3270 H 8.115055364752086 36.74174893698297 49.39485426732434 H 0.0 **** 0.41
3271 O 5.589842985315194 34.98956977566184 37.5080419786588 O 0.0 **** -0.82
3272 H 6.439027514111977 35.5456468963032 37.61365481858091 H 0.0 **** 0.41
3273 H 5.118685185709559 35.452338910777456 36.78005559840077 H 0.0 **** 0.41
3274 O 17.417405198933675 47.79853859098848 19.14033627565088 O 0.0 **** -0.82
3275 H 17.937579623700774 47.404390863824574 19.981141618380946 H 0.0 **** 0.41
3276 H 16.936779796828986 46.948538198408954 18.825159390411066 H 0.0 **** 0.41
3277 O 6.423391474491894 16.864814789333263 48.35234644075142 O 0.0 **** -0.82
3278 H 6.00086490408353 16.04746657930623 48.77102398006158 H 0.0 **** 0.41
3279 H 5.780666335507008 17.164971789306048 47.54130609805407 H 0.0 **** 0.41
3280 O 26.41181161439471 22.35326861262439 24.78994642475593 O 0.0 **** -0.82
3281 H 26.124573404843268 21.41535409186816 25.05173903503842 H 0.0 **** 0.41
3282 H 26.816000305134153 22.846033760616894 25.618373579157645 H 0.0 **** 0.41
3283 O 20.792414617447736 27.39211698604821 36.938191789643916 O 0.0 **** -0.82
3284 H 20.40904018208786 28.018977290781663 36.306555925871166 H 0.0 **** 0.41
3285 H 20.107924422782055 27.590310964815828 37.68364240583677 H 0.0 **** 0.41
3286 O 4.597923207894784 22.610161465890382 18.523742066354238 O 0.0 **** -0.82
3287 H 4.110604445285372 21.720628148667718 18.729764396335057 H 0.0 **** 0.41
3288 H 5.091636964783821 22.51352718167519 17.65034702985875 H 0.0 **** 0.41
3289 O 21.271633582742265 19.74485861671181 3.7317328488684893 O 0.0 **** -0.82
3290 H 21.62302962597774 20.507261519984674 3.1479013995387533 H 0.0 **** 0.41
3291 H 20.724810560810838 20.266316395530545 4.425390152668456 H 0.0 **** 0.41
3292 O 7.239326473705113 38.72679292211206 18.801264294683246 O 0.0 **** -0.82
3293 H 8.212107221579068 38.58952734608932 18.999075182479622 H 0.0 **** 0.41
3294 H 7.243445976670351 39.177287033276926 17.872339945827257 H 0.0 **** 0.41
3295 O 3.2195842698683137 17.45719421598811 40.30296904573592 O 0.0 **** -0.82
3296 H 3.1693045886978624 18.060058341215182 41.1465030570467 H 0.0 **** 0.41
3297 H 2.349698047251323 17.667081246279523 39.80935685706798 H 0.0 **** 0.41
3298 O 34.59137059989669 8.009849029819172 47.3392661162177 O 0.0 **** -0.82
3299 H 34.370388019712166 8.09688020506242 46.34237017629998 H 0.0 **** 0.41
3300 H 34.422377252408054 8.984063453390917 47.59446077960459 H 0.0 **** 0.41
3301 O 13.222105938875288 7.5956537623124145 12.38906621331853 O 0.0 **** -0.82
3302 H 13.374622075660291 8.289427646363277 11.664359620634771 H 0.0 **** 0.41
3303 H 12.264947770559019 7.159764203848713 12.348330857629717 H 0.0 **** 0.41
3304 O 19.145952003129494 21.979961286087157 30.046531486277047 O 0.0 **** -0.82
3305 H 19.5273546820462 22.154203313471687 30.950716819457856 H 0.0 **** 0.41
3306 H 19.454847883759243 22.792364296072787 29.457583138041976 H 0.0 **** 0.41
3307 O 30.644575229757347 13.653686896709972 49.47177768939129 O 0.0 **** -0.82
3308 H 30.1576023608787 13.432826926030096 48.6525149160086 H 0.0 **** 0.41
3309 H 31.62900537273659 13.854332930089319 49.16281652965535 H 0.0 **** 0.41
3310 O 28.095119897169916 23.143364350783287 11.984456273905652 O 0.0 **** -0.82
3311 H 27.938849802225075 22.514004783547634 11.217162501936041 H 0.0 **** 0.41
3312 H 28.68096462446914 23.865968637956485 11.648651604119522 H 0.0 **** 0.41
3313 O 35.50679703435607 4.904397177640199 22.29404686787663 O 0.0 **** -0.82
3314 H 36.26906980872267 4.934001070202974 22.904291947700287 H 0.0 **** 0.41
3315 H 34.79447654758487 5.3967813796835316 22.851335927347606 H 0.0 **** 0.41
3316 O 22.823336151152365 14.303162447198428 23.66947265940678 O 0.0 **** -0.82
3317 H 21.972719446506975 14.601690095097226 23.19546212528401 H 0.0 **** 0.41
3318 H 22.940071874392395 14.756544999243241 24.554591957740456 H 0.0 **** 0.41
3319 O 45.30722303728983 2.398420054487683 28.29728674845063 O 0.0 **** -0.82
3320 H 46.15593883106653 2.058686755530116 28.80801321750907 H 0.0 **** 0.41
3321 H 44.82447880225963 3.079814367852129 28.870653532894536 H 0.0 **** 0.41
3322 O 25.897106518737424 39.496453441567205 18.250123698902275 O 0.0 **** -0.82
3323 H 26.84466965422122 40.016928340662744 18.324309324550114 H 0.0 **** 0.41
3324 H 25.240395534821033 40.098765418925204 18.731802759559887 H 0.0 **** 0.41
3325 O 14.380241246046111 28.664653376828237 2.6983938720621894 O 0.0 **** -0.82
3326 H 15.200597672500749 28.15619942618419 2.3886984899290167 H 0.0 **** 0.41
3327 H 13.879171135998021 28.074532238030592 3.3275920497123472 H 0.0 **** 0.41
3328 O 26.554695633543716 40.003125048428416 27.505814460679773 O 0.0 **** -0.82
3329 H 27.07940370457183 39.198525714369765 27.24635258072022 H 0.0 **** 0.41
3330 H 27.248631420206934 40.727165603411976 27.58937942733391 H 0.0 **** 0.41
3331 O 2.286227513928562 32.32379682931774 22.22723137802295 O 0.0 **** -0.82
3332 H 1.7111107316124816 31.560501715058027 22.621080982827408 H 0.0 **** 0.41
3333 H 1.5983045985926572 33.08240657311644 22.145564920246727 H 0.0 **** 0.41
3334 O 45.88509184861435 1.9057269750317911 9.447674089872237 O 0.0 **** -0.82
3335 H 45.80303651915014 1.5485104374515624 8.471583936463396 H 0.0 **** 0.41
3336 H 45.89221089210395 1.058681807541743 9.960987326810027 H 0.0 **** 0.41
3337 O 39.15435795650105 31.26910095879191 3.4939481147742413 O 0.0 **** -0.82
3338 H 39.384440012517764 32.247441493924356 3.590174772267929 H 0.0 **** 0.41
3339 H 39.557685888008756 30.906085147528955 2.6200749673780024 H 0.0 **** 0.41
3340 O 45.77595494946398 41.20540242577979 23.04311788601412 O 0.0 **** -0.82
3341 H 45.29673226741719 42.1090746004729 23.314393593551298 H 0.0 **** 0.41
3342 H 46.04665534035592 41.33294304579459 22.04608428482503 H 0.0 **** 0.41
3343 O 13.390204002821903 28.355707743880238 8.659421139007257 O 0.0 **** -0.82
3344 H 14.091831913879332 29.08476748127247 8.966408267784919 H 0.0 **** 0.41
3345 H 13.29045168080534 27.60655587160539 9.307800331982879 H 0.0 **** 0.41
3346 O 48.469184145965016 4.206837262741292 20.98047086067514 O 0.0 **** -0.82
3347 H 47.60953631281933 4.781515839331051 20.7691190071325 H 0.0 **** 0.41
3348 H 48.55553054307492 3.5060454001259633 20.1917118431836 H 0.0 **** 0.41
3349 O 47.66785803108013 48.334699744767896 28.733224331961633 O 0.0 **** -0.82
3350 H 47.36492891089027 47.40954722414422 29.066629917923468 H 0.0 **** 0.41
3351 H 48.335931504700866 48.620983611256456 29.39542214885883 H 0.0 **** 0.41
3352 O 42.096413828302886 40.13912133460362 22.573456340628944 O 0.0 **** -0.82
3353 H 41.86452634007743 40.98971874031173 22.992716033926925 H 0.0 **** 0.41
3354 H 42.86940814693397 40.13263209830641 21.943327659120207 H 0.0 **** 0.41
3355 O 28.77734157101064 25.929531339740556 38.75402016010768 O 0.0 **** -0.82
3356 H 27.78787632447537 25.650099771941086 38.55512158099831 H 0.0 **** 0.41
3357 H 28.770048667623236 26.79409328538157 39.14516583507197 H 0.0 **** 0.41
3358 O 39.663605318908765 16.05184772389228 24.66815832453779 O 0.0 **** -0.82
3359 H 38.8540647906995 15.465150581941785 24.53449739081864 H 0.0 **** 0.41
3360 H 39.351885064394295 16.873060500458934 25.182252818355867 H 0.0 **** 0.41
3361 O 29.998545464504364 29.37781192318191 29.446020589720693 O 0.0 **** -0.82
3362 H 30.33799871818945 28.574115864139486 28.931991487854155 H 0.0 **** 0.41
3363 H 29.03145708636958 29.51320853976509 29.18235799705115 H 0.0 **** 0.41
3364 O 7.9673237734917715 6.98795944735183 25.470123833781436 O 0.0 **** -0.82
3365 H 8.461700113396606 6.547957648992262 26.224032824385304 H 0.0 **** 0.41
3366 H 8.619058325152908 6.813241293189134 24.69415850002579 H 0.0 **** 0.41
3367 O 11.498161050421091 36.08047813157263 27.30947921727495 O 0.0 **** -0.82
3368 H 11.070910289806411 35.813520055568 28.215033431655556 H 0.0 **** 0.41
3369 H 10.856871120600523 35.992220491900476 26.530559126751573 H 0.0 **** 0.41
3370 O 6.105405193991412 22.30277943448046 2.820666564247034 O 0.0 **** -0.82
3371 H 6.994297873966178 22.772278390914163 2.910579650152613 H 0.0 **** 0.41
3372 H 6.00171893896764 22.144445457943085 1.811075084227319 H 0.0 **** 0.41
3373 O 34.25962776048801 49.83216403201338 9.068515433084196 O 0.0 **** -0.82
3374 H 33.73063315355845 49.89644537562616 9.980905678178107 H 0.0 **** 0.41
3375 H 34.80836710010431 50.65866532894425 9.138026031255173 H 0.0 **** 0.41
3376 O 6.016456889920903 2.7783015432399267 35.16364660947244 O 0.0 **** -0.82
3377 H 5.216776101599379 2.5088725435595265 34.58883226228127 H 0.0 **** 0.41
3378 H 6.649334822444587 1.9848424705279015 35.12997912572288 H 0.0 **** 0.41
3379 O 43.03335119725857 40.609323652339036 15.626838455097007 O 0.0 **** -0.82
3380 H 42.89624899860705 41.59737420144633 15.547484002448247 H 0.0 **** 0.41
3381 H 42.034762113032556 40.38085609089934 15.578725292755877 H 0.0 **** 0.41
3382 O 9.741350562968783 33.356194110784045 44.52366740632569 O 0.0 **** -0.82
3383 H 9.48644141878938 33.76571182579625 45.39229302829224 H 0.0 **** 0.41
3384 H 10.743901705317866 33.349646939789146 44.501912324907885 H 0.0 **** 0.41
3385 O 41.89390232487014 48.61605816960879 33.587801352759875 O 0.0 **** -0.82
3386 H 41.67983667897478 49.59802499599519 33.58388868207892 H 0.0 **** 0.41
3387 H 42.94384645121974 48.60782996092949 33.68670493733368 H 0.0 **** 0.41
3388 O 38.56357961947056 16.77524315653377 8.579996168191535 O 0.0 **** -0.82
3389 H 38.08646741180808 15.920121601881046 9.003764943744683 H 0.0 **** 0.41
3390 H 38.2754879999405 16.74945615083473 7.619091614150829 H 0.0 **** 0.41
3391 O 30.36679863404662 8.072722600160736 25.602022975769437 O 0.0 **** -0.82
3392 H 29.340373810190016 8.018529716423854 25.39818305799975 H 0.0 **** 0.41
3393 H 30.670631887684195 8.804827078411732 24.953880705330192 H 0.0 **** 0.41
3394 O 47.79556535756745 3.1062662175247695 16.258647506312244 O 0.0 **** -0.82
3395 H 48.602187246678405 3.018564038603256 15.573143076566053 H 0.0 **** 0.41
3396 H 47.522273461145346 4.077428413741347 16.293447646436043 H 0.0 **** 0.41
3397 O 22.72679928846265 5.427073730275128 24.103818184349418 O 0.0 **** -0.82
3398 H 22.64091546307298 6.140938144440558 23.438267793714093 H 0.0 **** 0.41
3399 H 23.748373910344363 5.33101950523972 24.225276629116458 H 0.0 **** 0.41
3400 O 2.675877144406236 23.80866709151426 47.894076078473915 O 0.0 **** -0.82
3401 H 1.8602331763144662 24.29110015246741 47.50546998188376 H 0.0 **** 0.41
3402 H 2.7122192344289715 24.173939047203692 48.842410494808924 H 0.0 **** 0.41
3403 O 4.158754635198345 48.6237244962261 26.68647013132817 O 0.0 **** -0.82
3404 H 3.372948429775671 49.269770119472284 26.702587503662333 H 0.0 **** 0.41
3405 H 4.870497735695832 48.95654939707676 27.327636105522235 H 0.0 **** 0.41
3406 O 30.05031846706339 48.91246919487811 13.422146644092086 O 0.0 **** -0.82
3407 H 30.994505859109978 48.630876369614825 13.75114858583761 H 0.0 **** 0.41
3408 H 30.29016622694705 49.35116519925022 12.478171879462367 H 0.0 **** 0.41
3409 O 36.62380081122229 7.440637504260529 36.26170546757574 O 0.0 **** -0.82
3410 H 36.91959504537417 6.99687271029147 37.13488010793324 H 0.0 **** 0.41
3411 H 35.70644637732094 7.054876166303977 36.15737482127557 H 0.0 **** 0.41
3412 O 9.581735515789408 3.807814282419713 36.27179734297379 O 0.0 **** -0.82
3413 H 8.656489639306455 3.799428766768223 36.59921456110386 H 0.0 **** 0.41
3414 H 9.58727800551955 4.511128037279462 35.529033455310895 H 0.0 **** 0.41
3415 O 21.45606799197287 46.64359209832978 9.646382359819748 O 0.0 **** -0.82
3416 H 22.429398381946513 46.564027263197644 9.254922957128214 H 0.0 **** 0.41
3417 H 21.703993668229838 46.54496599777003 10.639464300702926 H 0.0 **** 0.41
3418 O 13.370820779933897 32.89517079442492 7.852604695771596 O 0.0 **** -0.82
3419 H 12.904143139640887 32.19615174791948 7.339241776305478 H 0.0 **** 0.41
3420 H 13.651203371460058 32.48348235481149 8.740277507216007 H 0.0 **** 0.41
3421 O 6.017706770587878 34.351403904610166 5.402791710575866 O 0.0 **** -0.82
3422 H 5.087917073840217 34.65748581117641 5.509744609179003 H 0.0 **** 0.41
3423 H 6.229598998462279 33.83159918695363 6.247993529061197 H 0.0 **** 0.41
3424 O 22.979897633760057 15.422644203131611 6.740490019105735 O 0.0 **** -0.82
3425 H 23.9425058726598 15.805333716590667 6.856980148282794 H 0.0 **** 0.41
3426 H 23.271763135630273 14.49068930424248 6.500097653241568 H 0.0 **** 0.41
3427 O 14.121120078907111 34.917718915845406 6.133452666626042 O 0.0 **** -0.82
3428 H 14.12314661642364 34.09547242287574 6.741088087332983 H 0.0 **** 0.41
3429 H 15.10143024934517 35.1239910684939 5.9962155722923 H 0.0 **** 0.41
3430 O 2.252166696417447 0.5210681869195568 26.886336051524246 O 0.0 **** -0.82
3431 H 2.9159146141529533 1.2329952750679212 26.894418305154407 H 0.0 **** 0.41
3432 H 1.6945083931757878 0.6715475629268823 26.098942911943244 H 0.0 **** 0.41
3433 O 3.6919157495625834 47.186418372265635 47.56518564754902 O 0.0 **** -0.82
3434 H 3.1830160431544736 47.961124187156976 47.939811540155574 H 0.0 **** 0.41
3435 H 4.500350192915083 47.20782716427689 48.16181168442652 H 0.0 **** 0.41
3436 O 8.255571995880626 7.872094512038828 4.10783457612267 O 0.0 **** -0.82
3437 H 9.069445034874713 7.845771311258687 4.73473263569425 H 0.0 **** 0.41
3438 H 7.9229231875486255 8.85590206998318 4.203734156400159 H 0.0 **** 0.41
3439 O 29.262646288873842 0.31538660096856447 20.459076192750558 O 0.0 **** -0.82
3440 H 29.422385526179543 -0.5947904788897134 20.009408416698975 H 0.0 **** 0.41
3441 H 30.05701546721254 0.8627805282686811 20.49561630258374 H 0.0 **** 0.41
3442 O 48.904002417236924 6.676785590320937 43.731497790353984 O 0.0 **** -0.82
3443 H 48.97434522208866 6.875505677069378 44.73556379320071 H 0.0 **** 0.41
3444 H 48.41255035748178 5.838007150777951 43.70821394521974 H 0.0 **** 0.41
3445 O 15.034493416525152 1.1195067223854553 0.7688123131942319 O 0.0 **** -0.82
3446 H 14.3409213655316 1.0209571792953243 1.488763376481117 H 0.0 **** 0.41
3447 H 15.33616412929645 2.065066249589025 0.9320537224707763 H 0.0 **** 0.41
3448 O 32.95852439450593 29.1245062644944 2.436606414145942 O 0.0 **** -0.82
3449 H 32.234295686208114 28.849459168727538 3.097066330475805 H 0.0 **** 0.41
3450 H 32.595264361461545 28.809622110279832 1.571773766179959 H 0.0 **** 0.41
3451 O 32.445944240442145 14.539015272208223 47.46778874817357 O 0.0 **** -0.82
3452 H 32.141250043348954 15.48886472504499 47.434970333666016 H 0.0 **** 0.41
3453 H 32.55161782124252 14.414742647296423 46.46115283498917 H 0.0 **** 0.41
3454 O 16.120789462572848 34.54290207823505 23.507145499838394 O 0.0 **** -0.82
3455 H 16.358267422691828 33.546628262009776 23.626346122023563 H 0.0 **** 0.41
3456 H 15.644669886970279 34.63663859895742 22.66685340173616 H 0.0 **** 0.41
3457 O 43.43738861612637 45.696058680367244 43.455353356364554 O 0.0 **** -0.82
3458 H 43.527349414998845 46.697682024956485 43.2712868389026 H 0.0 **** 0.41
3459 H 42.920157033956805 45.35602107310391 42.69803897877942 H 0.0 **** 0.41
3460 O 6.070566723114076 29.649553608557518 21.880688203150886 O 0.0 **** -0.82
3461 H 6.799857525342166 30.35921590657183 21.730999294716383 H 0.0 **** 0.41
3462 H 5.6815851856433905 29.854030554404584 22.76815993429102 H 0.0 **** 0.41
3463 O 11.265531358005148 4.168439762916691 6.428848290257406 O 0.0 **** -0.82
3464 H 12.207290895524892 3.713823752706915 6.584199077232274 H 0.0 **** 0.41
3465 H 11.386018445373296 5.131903458268454 6.7175678212149625 H 0.0 **** 0.41
3466 O 43.516419407860646 28.68100044257873 9.213341539831347 O 0.0 **** -0.82
3467 H 43.41147067014151 29.18129702205796 10.07346420630713 H 0.0 **** 0.41
3468 H 42.696217172622596 28.1840914489558 9.078863528050924 H 0.0 **** 0.41
3469 O 38.684101780943145 45.41523433181019 42.278133263558786 O 0.0 **** -0.82
3470 H 38.19212631166281 46.213858274503856 42.71856826892439 H 0.0 **** 0.41
3471 H 38.366942284036185 45.43470536646343 41.32097673850977 H 0.0 **** 0.41
3472 O 47.7807778450236 34.579637473312 7.786971736839128 O 0.0 **** -0.82
3473 H 47.34393343082181 34.07576393521918 7.053601427919965 H 0.0 **** 0.41
3474 H 47.82484702413853 35.54976260882148 7.555213239591552 H 0.0 **** 0.41
3475 O 5.170841486527955 48.51474336242964 32.612183559300526 O 0.0 **** -0.82
3476 H 4.980340938475894 48.83701279526936 33.608221968367424 H 0.0 **** 0.41
3477 H 5.472647353494481 47.579627465425844 32.82429091733755 H 0.0 **** 0.41
3478 O 27.027661208124496 8.24609781277449 4.06289658525977 O 0.0 **** -0.82
3479 H 27.164074241152562 9.254846421166143 3.9684240261697483 H 0.0 **** 0.41
3480 H 27.94340742644993 7.886282307112048 3.784003536188996 H 0.0 **** 0.41
3481 O 49.26281173299984 3.5814920715167773 33.509528686791285 O 0.0 **** -0.82
3482 H 49.706422475488154 3.7173786628193355 34.405606631473205 H 0.0 **** 0.41
3483 H 49.69377232353312 4.3161300999504135 32.89862274379312 H 0.0 **** 0.41
3484 O 27.142588767451443 32.91726735185287 1.5436161627597187 O 0.0 **** -0.82
3485 H 26.68740803983448 33.39762226566599 2.270782214516487 H 0.0 **** 0.41
3486 H 28.137981670817737 32.949382424416925 1.6619216610872556 H 0.0 **** 0.41
3487 O 48.41849074338669 18.801894948456184 38.87839392063045 O 0.0 **** -0.82
3488 H 47.83290903822959 19.132677166848797 39.682949094519635 H 0.0 **** 0.41
3489 H 47.93589260176902 18.902297944290552 38.01913199574826 H 0.0 **** 0.41
3490 O 49.3873642190038 21.917853145003516 45.207498536590066 O 0.0 **** -0.82
3491 H 49.94602236177078 21.11054603923973 45.21555318788733 H 0.0 **** 0.41
3492 H 49.19255328990662 22.225929027799157 44.23460305758717 H 0.0 **** 0.41
3493 O 3.3258745510185577 46.02990134515769 25.25247407061695 O 0.0 **** -0.82
3494 H 2.5022519854750485 46.35573548147643 24.779319621061187 H 0.0 **** 0.41
3495 H 3.563082389888713 46.74974761864341 25.907628993183163 H 0.0 **** 0.41
3496 O 19.883962963422473 41.24967799961708 30.41308533874215 O 0.0 **** -0.82
3497 H 19.868013485481733 42.25917347269162 30.232187335838375 H 0.0 **** 0.41
3498 H 19.038587858710986 41.13861366113278 30.973886218952174 H 0.0 **** 0.41
3499 O 35.04142209566699 41.313831783336816 14.141828436528115 O 0.0 **** -0.82
3500 H 34.180270657440964 41.0272402394999 14.573027907837869 H 0.0 **** 0.41
3501 H 34.80408813954627 42.0630880639297 13.492105901245807 H 0.0 **** 0.41
3502 O 22.89962024460671 15.379045051265901 28.497255633120677 O 0.0 **** -0.82
3503 H 23.40512770237455 15.790759544739338 29.308535813714307 H 0.0 **** 0.41
3504 H 22.76078564256464 14.525272583463716 28.985995203569395 H 0.0 **** 0.41
3505 O 26.34213065166882 42.25297981653155 0.44082646076833565 O 0.0 **** -0.82
3506 H 26.615278403568375 41.56194839431315 1.1075076853157986 H 0.0 **** 0.41
3507 H 27.089982490943626 42.94036947486071 0.43035387663163727 H 0.0 **** 0.41
3508 O 29.114720001649335 1.4551003231422641 3.68036065888937 O 0.0 **** -0.82
3509 H 28.608298330060208 1.2715288404542868 2.825348327953769 H 0.0 **** 0.41
3510 H 29.68449732982886 2.131489430580861 3.2267766362394212 H 0.0 **** 0.41
3511 O 47.68377132493731 39.82090337265227 1.4120477927277546 O 0.0 **** -0.82
3512 H 47.64859643986932 40.687650002420504 0.9171900538850021 H 0.0 **** 0.41
3513 H 47.716436097718905 40.0542591910385 2.3891362912739584 H 0.0 **** 0.41
3514 O 27.219831536148046 16.35766125094746 34.62380552835974 O 0.0 **** -0.82
3515 H 26.741923556145153 15.52968602764375 34.20680203537743 H 0.0 **** 0.41
3516 H 27.235244677272078 16.19685099903309 35.631021774431105 H 0.0 **** 0.41
3517 O 44.54766045249849 10.319104238164332 3.9203501523658515 O 0.0 **** -0.82
3518 H 44.53115617997557 10.782844305945835 3.038120247333433 H 0.0 **** 0.41
3519 H 44.85060346887954 10.993528186649087 4.5850395595557485 H 0.0 **** 0.41
3520 O 10.885449774837667 42.414678324334965 26.14603514357028 O 0.0 **** -0.82
3521 H 11.783337737159194 41.935158499360504 26.198198518092934 H 0.0 **** 0.41
3522 H 10.433965706120908 41.96146907872404 26.900878054248153 H 0.0 **** 0.41
3523 O 39.35763086315818 9.495182646796481 12.789934607267462 O 0.0 **** -0.82
3524 H 38.49230186913508 8.999160997572309 12.888797127916177 H 0.0 **** 0.41
3525 H 39.29858661974727 10.345540432424835 13.292882611955982 H 0.0 **** 0.41
3526 O 22.3689368743011 11.39176156406861 17.630706107662085 O 0.0 **** -0.82
3527 H 22.652525405945397 10.709526572390494 16.95551168224181 H 0.0 **** 0.41
3528 H 21.366045227257956 11.411392121279547 17.470469913761352 H 0.0 **** 0.41
3529 O 44.73587519717445 21.078178352456785 3.2727265185948866 O 0.0 **** -0.82
3530 H 44.22977499841522 20.219936670569552 3.4857695845753085 H 0.0 **** 0.41
3531 H 45.75546277260383 20.867388654538637 3.325538427297964 H 0.0 **** 0.41
3532 O 48.93856243014128 46.2253789762447 14.258623981406544 O 0.0 **** -0.82
3533 H 48.03992822371613 46.359949113141205 14.679420432370812 H 0.0 **** 0.41
3534 H 49.231311785898605 45.28086508171713 14.508107470345607 H 0.0 **** 0.41
3535 O 46.42080635663062 23.875878402042485 9.272475394812076 O 0.0 **** -0.82
3536 H 45.80435005704034 24.677331960863565 9.277687589039036 H 0.0 **** 0.41
3537 H 47.29970178282524 24.209187453104313 9.640945500295219 H 0.0 **** 0.41
3538 O 42.838628604705995 2.0430000597618516 30.235575833882137 O 0.0 **** -0.82
3539 H 41.819037274704506 2.2352462780712443 30.5126750525248 H 0.0 **** 0.41
3540 H 43.207090770217526 2.977117101234846 30.151415852236454 H 0.0 **** 0.41
3541 O 17.586840160832327 39.67923799850362 42.12653614956231 O 0.0 **** -0.82
3542 H 18.004287663973493 40.23985284033117 42.90388639968615 H 0.0 **** 0.41
3543 H 18.375281572071575 39.39386018105474 41.57262490993636 H 0.0 **** 0.41
3544 O 33.37301954497566 26.35912842451361 21.675717978214276 O 0.0 **** -0.82
3545 H 32.79433078491281 25.559472932811353 21.711241261963448 H 0.0 **** 0.41
3546 H 32.860737710285576 26.971215850778133 22.263638496492458 H 0.0 **** 0.41
3547 O 47.19374566652321 31.567556747705552 24.23384447888481 O 0.0 **** -0.82
3548 H 48.04973066113128 32.051312522804274 24.250309368259437 H 0.0 **** 0.41
3549 H 47.30526413614639 30.57471439761704 23.97240864665938 H 0.0 **** 0.41
3550 O 0.557516826821562 29.05992170793619 34.32846429873581 O 0.0 **** -0.82
3551 H 0.8383738752272762 29.745748193171522 33.605930175021435 H 0.0 **** 0.41
3552 H 1.3122821713416073 28.384596941951518 34.11159604366937 H 0.0 **** 0.41
3553 O 31.579326242993815 31.195177958922475 14.770400387474737 O 0.0 **** -0.82
3554 H 30.59780011513256 30.88838133143481 14.823880431196264 H 0.0 **** 0.41
3555 H 31.908688572881236 31.511055277537928 15.736875310233941 H 0.0 **** 0.41
3556 O 21.127530127778982 43.60888133017958 5.258498511315544 O 0.0 **** -0.82
3557 H 20.332911186741896 43.53530446860435 4.629469359409185 H 0.0 **** 0.41
3558 H 20.913499690462288 43.20867135073988 6.180465174358048 H 0.0 **** 0.41
3559 O 47.12959425268669 6.988142458813342 26.307269870398038 O 0.0 **** -0.82
3560 H 46.41844988275139 7.718183694191668 26.243024300476414 H 0.0 **** 0.41
3561 H 47.79381928251508 7.48711501772621 25.71519771426844 H 0.0 **** 0.41
3562 O 10.936611473274626 20.425286725212487 17.106349217477344 O 0.0 **** -0.82
3563 H 11.713673785411228 20.90890458374328 16.6517908749589 H 0.0 **** 0.41
3564 H 10.162311284087158 20.923021873835552 16.780275946725652 H 0.0 **** 0.41
3565 O 21.853501135451957 24.49919613916594 41.848363636438805 O 0.0 **** -0.82
3566 H 22.449920576507562 25.26194023343581 42.077844684474634 H 0.0 **** 0.41
3567 H 20.955006332606196 24.988214881840904 41.73867029769831 H 0.0 **** 0.41
3568 O 40.578342354882416 21.978997198993007 8.75327421411505 O 0.0 **** -0.82
3569 H 39.72391315425298 22.57414161124855 8.797526226769996 H 0.0 **** 0.41
3570 H 40.61821263297419 21.402639540119054 9.587039254503534 H 0.0 **** 0.41
3571 O 1.1887021930415003 13.273866747795317 34.5412290255027 O 0.0 **** -0.82
3572 H 0.5961661046247713 12.474618851500173 34.39517063931355 H 0.0 **** 0.41
3573 H 1.201788669523367 13.50102330213393 35.55721319404195 H 0.0 **** 0.41
3574 O 48.76849083556654 42.77082869824576 30.414054595740666 O 0.0 **** -0.82
3575 H 48.8972263328699 43.73514842179255 30.725189720284817 H 0.0 **** 0.41
3576 H 48.68989950221999 42.43055307403979 31.370556203035733 H 0.0 **** 0.41
3577 O 40.7784886176736 20.62586865347385 41.444905099754386 O 0.0 **** -0.82
3578 H 41.19549954447183 21.467282728556164 41.85379289685084 H 0.0 **** 0.41
3579 H 40.36869102414604 21.0546380215227 40.65286218884247 H 0.0 **** 0.41
3580 O 21.192195221165438 15.468938630635233 15.577607325348467 O 0.0 **** -0.82
3581 H 22.228133085829416 15.30136887953373 15.44653676679782 H 0.0 **** 0.41
3582 H 20.820713965264353 15.138897565613169 14.715736312129707 H 0.0 **** 0.41
3583 O 32.81475692914895 1.2591564758057956 24.602242852910987 O 0.0 **** -0.82
3584 H 32.146346144902125 1.8154814197389015 24.131683191016922 H 0.0 **** 0.41
3585 H 33.25103630788073 0.7516532676580638 23.839731860649604 H 0.0 **** 0.41
3586 O 9.897454547127769 16.183827878591018 32.25710922165347 O 0.0 **** -0.82
3587 H 8.885400835769888 16.080680187994417 31.94010243785116 H 0.0 **** 0.41
3588 H 10.016652773665637 16.12239555821364 33.23697609645129 H 0.0 **** 0.41
3589 O 21.969630149478746 23.09812357071785 18.089484272652953 O 0.0 **** -0.82
3590 H 22.709310077856003 23.535815952889042 18.638191895970333 H 0.0 **** 0.41
3591 H 21.1659736772463 23.13100720150906 18.665310347307933 H 0.0 **** 0.41
3592 O 2.358536707861741 11.843798738288932 6.271645215325286 O 0.0 **** -0.82
3593 H 2.365381551926421 10.98173226235447 5.78719299629567 H 0.0 **** 0.41
3594 H 2.365001473612296 11.414100405768188 7.164220193484551 H 0.0 **** 0.41
3595 O 26.784451706583933 40.183241428650256 8.28656830779643 O 0.0 **** -0.82
3596 H 26.89484384186087 39.81967512265899 7.328341938737367 H 0.0 **** 0.41
3597 H 25.724554133309248 40.32637591490143 8.339874615211038 H 0.0 **** 0.41
3598 O 26.94021556995031 5.498838863593711 3.0374710927078468 O 0.0 **** -0.82
3599 H 26.399201831215862 6.312596810263578 3.266636067717549 H 0.0 **** 0.41
3600 H 27.86320422437446 5.779539142670217 3.421466838456979 H 0.0 **** 0.41
3601 O 13.038100918036026 37.49163122169816 43.268804572316675 O 0.0 **** -0.82
3602 H 13.999357928574781 38.05743760865955 43.21483268122717 H 0.0 **** 0.41
3603 H 12.663180581290284 37.792578949086256 44.18137944654222 H 0.0 **** 0.41
3604 O 21.564256383218808 40.33713374463107 8.390597648277627 O 0.0 **** -0.82
3605 H 21.00517709993716 40.64304199810043 7.620099573021967 H 0.0 **** 0.41
3606 H 22.478650189050803 40.794979128192885 8.411521608310494 H 0.0 **** 0.41
3607 O 36.90622200652077 11.765219140319997 1.0096032419643137 O 0.0 **** -0.82
3608 H 37.575955064306086 11.48140028351705 0.3363156460516805 H 0.0 **** 0.41
3609 H 37.19756184796067 11.400730477442595 1.9455387458067719 H 0.0 **** 0.41
3610 O 28.326333650540633 42.22287151640567 17.26997876708583 O 0.0 **** -0.82
3611 H 29.24912916040023 42.56475571338894 17.032767312160097 H 0.0 **** 0.41
3612 H 28.40727350875143 41.59968159231473 18.06004227227793 H 0.0 **** 0.41
3613 O 22.37007706346169 5.9844114496307865 0.3860796878707873 O 0.0 **** -0.82
3614 H 21.333834155098714 6.180416858145616 0.422406068746277 H 0.0 **** 0.41
3615 H 22.661301431664253 6.888488705470342 0.03189789383418429 H 0.0 **** 0.41
3616 O 14.171192063790814 11.223911213486284 12.05421952669354 O 0.0 **** -0.82
3617 H 13.248875122139111 10.778453300245078 11.845299251103102 H 0.0 **** 0.41
3618 H 14.367967847866618 11.616957984979539 11.184061624781304 H 0.0 **** 0.41
3619 O 44.88173160993171 42.598114210569044 39.14996409430577 O 0.0 **** -0.82
3620 H 45.47785694298843 43.05712017960273 39.867046496493046 H 0.0 **** 0.41
3621 H 45.00547091584034 42.9709425881516 38.20965440258118 H 0.0 **** 0.41
3622 O 33.63268689364246 34.99651992597834 25.272678404035187 O 0.0 **** -0.82
3623 H 33.91797296357274 35.611742980980466 24.54372733551853 H 0.0 **** 0.41
3624 H 33.993325457714256 35.56306355783562 26.003716124249287 H 0.0 **** 0.41
3625 O 23.969675653841193 26.31093419828877 45.97346439852564 O 0.0 **** -0.82
3626 H 23.16129078822641 25.700465651104516 46.065315631675574 H 0.0 **** 0.41
3627 H 24.560531320673277 26.0357800778183 46.73509949167957 H 0.0 **** 0.41
3628 O 32.7668020596316 15.74532786149389 1.4124067912573803 O 0.0 **** -0.82
3629 H 33.49671679759203 15.504285245496705 0.7691676044145516 H 0.0 **** 0.41
3630 H 32.156807692243106 16.265693613024247 0.8056238969445678 H 0.0 **** 0.41
3631 O 4.410876541367699 37.83840872405639 45.201575424051825 O 0.0 **** -0.82
3632 H 3.4646689202831737 38.13444283154771 45.01237813971092 H 0.0 **** 0.41
3633 H 4.5615076283797436 37.163043545441994 44.45591921324047 H 0.0 **** 0.41
3634 O 3.3366113413517313 48.71278816728961 1.3397572141311678 O 0.0 **** -0.82
3635 H 2.437162524161559 48.62037870128923 0.8680826590643408 H 0.0 **** 0.41
3636 H 3.6905850867566428 47.77050041910304 1.400212647521744 H 0.0 **** 0.41
3637 O 19.1214072815915 39.39318577468736 0.7303190050669035 O 0.0 **** -0.82
3638 H 18.156010715582696 39.45660796225532 0.6697528585042541 H 0.0 **** 0.41
3639 H 19.38486542016065 39.771908574715106 1.599495725186502 H 0.0 **** 0.41
3640 O 16.907338989265792 30.865550665248403 5.4080992336355465 O 0.0 **** -0.82
3641 H 15.925376840513414 31.01543816967805 5.484375395678357 H 0.0 **** 0.41
3642 H 17.249110227958756 31.7648589302949 5.690911329357907 H 0.0 **** 0.41
3643 O 16.098583912862495 1.2836224405172216 48.245065622805946 O 0.0 **** -0.82
3644 H 17.090380350709157 1.3109269273272168 48.44953883538455 H 0.0 **** 0.41
3645 H 15.613726511597438 1.1928112571047476 49.097413682275864 H 0.0 **** 0.41
3646 O 30.266275130286605 0.22176428683356164 10.977657769617892 O 0.0 **** -0.82
3647 H 29.684205132559324 -0.42249868091963805 10.488945837810974 H 0.0 **** 0.41
3648 H 29.728205348016303 1.0347291946889072 11.239692640549691 H 0.0 **** 0.41
3649 O 41.68219667325594 45.88535641932659 34.35781284243674 O 0.0 **** -0.82
3650 H 40.872233282961076 45.2728882331581 34.02775387816515 H 0.0 **** 0.41
3651 H 41.50414805148524 46.88889870308311 34.08624264719574 H 0.0 **** 0.41
3652 O 36.155126168450174 45.58534781499219 13.589109209880268 O 0.0 **** -0.82
3653 H 36.96587790471896 45.96202920978707 13.098227189350572 H 0.0 **** 0.41
3654 H 36.26124826132115 44.555944903038295 13.422671508838002 H 0.0 **** 0.41
3655 O 5.483067884069868 34.48662316097654 48.78755784042879 O 0.0 **** -0.82
3656 H 5.9612932567828665 35.32441887413974 49.02427012815718 H 0.0 **** 0.41
3657 H 5.505171154111181 33.9474778626331 49.69051390736304 H 0.0 **** 0.41
3658 O 4.4374668563649635 46.96104225466574 22.30279691614561 O 0.0 **** -0.82
3659 H 4.829612320769996 47.78640554686174 22.76019814704182 H 0.0 **** 0.41
3660 H 4.8151166339957285 46.12738045658357 22.742894173601883 H 0.0 **** 0.41
3661 O 37.55708453960905 28.690489644911935 41.1870374134222 O 0.0 **** -0.82
3662 H 36.79230225569924 28.772036450370937 41.903112595967904 H 0.0 **** 0.41
3663 H 37.504832469054826 27.824442258728926 40.651318830258056 H 0.0 **** 0.41
3664 O 15.204783789982372 47.02222415089553 8.805382835061133 O 0.0 **** -0.82
3665 H 15.12501222476466 46.940290741547216 9.803496836018104 H 0.0 **** 0.41
3666 H 14.526132235283342 46.36529607038369 8.552848438839522 H 0.0 **** 0.41
3667 O 23.107806919530027 10.798429392387249 4.647430449376321 O 0.0 **** -0.82
3668 H 22.83497267175072 10.550753930101573 3.700386434350198 H 0.0 **** 0.41
3669 H 23.51510753639163 9.906557849670502 4.880023405292346 H 0.0 **** 0.41
3670 O 8.276862514180033 3.1558874516832773 39.50919428225689 O 0.0 **** -0.82
3671 H 7.895498568076391 2.497334378965178 40.11901297006964 H 0.0 **** 0.41
3672 H 8.131775828014453 4.129567007916599 39.9444297010198 H 0.0 **** 0.41
3673 O 2.3626473596267132 8.585778309533083 16.3857400373459 O 0.0 **** -0.82
3674 H 2.0139783331467385 9.205948211424726 17.114895421097955 H 0.0 **** 0.41
3675 H 2.846355753251366 9.17058991858513 15.706154345920021 H 0.0 **** 0.41
3676 O 20.899735029547266 26.128268701088416 22.616060659756936 O 0.0 **** -0.82
3677 H 20.76850915298614 26.269491339451314 23.647635251123393 H 0.0 **** 0.41
3678 H 20.158666008413167 25.553759045936882 22.2417348714207 H 0.0 **** 0.41
3679 O 43.384115874680916 14.70126729573227 36.180758683341274 O 0.0 **** -0.82
3680 H 43.090386285080434 13.754911598302785 36.34897076657503 H 0.0 **** 0.41
3681 H 43.556328500326494 15.088605723761978 37.109357401107445 H 0.0 **** 0.41
3682 O 23.757838909554838 40.090795228955734 0.4563536040289868 O 0.0 **** -0.82
3683 H 24.662972599346283 40.51862614059841 0.5571089258974268 H 0.0 **** 0.41
3684 H 23.766544212903867 39.8257736334028 -0.5312424054482392 H 0.0 **** 0.41
3685 O 32.26671094929863 10.877985107385165 47.1932653747687 O 0.0 **** -0.82
3686 H 33.04635870764374 10.938526207095773 47.78579146481776 H 0.0 **** 0.41
3687 H 31.56650693380387 10.390283035317113 47.67978601986744 H 0.0 **** 0.41
3688 O 15.665418596396679 40.6323901784064 33.926593779452986 O 0.0 **** -0.82
3689 H 15.710546971697504 39.61690405509966 33.718278780043335 H 0.0 **** 0.41
3690 H 15.90325968785805 40.776486899680755 34.91411177347798 H 0.0 **** 0.41
3691 O 26.596174418906443 22.137284889424727 16.904616786095627 O 0.0 **** -0.82
3692 H 27.340115680481134 22.70111247169309 17.260830646298306 H 0.0 **** 0.41
3693 H 25.913059053483266 22.755622213609605 16.524707422267525 H 0.0 **** 0.41
3694 O 33.80082529143327 5.481681223456759 27.217260954792366 O 0.0 **** -0.82
3695 H 33.34283598574313 4.835794102872098 26.604005337947697 H 0.0 **** 0.41
3696 H 33.08749835594327 5.896638520844836 27.834809339346137 H 0.0 **** 0.41
3697 O 33.45380207185108 23.16074160447835 1.7657585109011733 O 0.0 **** -0.82
3698 H 34.08009343134186 22.371632968209653 1.7177084381864307 H 0.0 **** 0.41
3699 H 32.85800741488628 23.275323438728673 0.9495239043436976 H 0.0 **** 0.41
3700 O 11.33249374880026 19.868771796520953 49.28253002480741 O 0.0 **** -0.82
3701 H 11.06761341986001 19.867772799856517 48.33531668459994 H 0.0 **** 0.41
3702 H 12.209757321421236 20.378683416136106 49.247598027262384 H 0.0 **** 0.41
3703 O 1.9199963596575027 19.884432504750983 7.000608245852491 O 0.0 **** -0.82
3704 H 2.2240329180906087 20.185925303954487 7.960074326376947 H 0.0 **** 0.41
3705 H 1.0557242865703103 19.35433342430061 7.18505888282192 H 0.0 **** 0.41
3706 O 27.980971030707444 3.564970776162056 22.42779893633241 O 0.0 **** -0.82
3707 H 27.66523733965328 3.566507079924598 21.43977793372159 H 0.0 **** 0.41
3708 H 27.919169254901465 4.569056239711863 22.63707098679528 H 0.0 **** 0.41
3709 O 43.332457040851786 8.204532275351141 41.023648206244296 O 0.0 **** -0.82
3710 H 43.4941108162106 7.2611800724825315 41.24351562286868 H 0.0 **** 0.41
3711 H 43.964527184619705 8.833887161524771 41.5555849885786 H 0.0 **** 0.41
3712 O 41.12781521732364 18.20378621105304 12.226963338906312 O 0.0 **** -0.82
3713 H 41.13795393296847 17.855992515122875 13.19994458876486 H 0.0 **** 0.41
3714 H 42.14775375013329 18.202951879643607 11.979194176800338 H 0.0 **** 0.41
3715 O 49.4789396420974 4.236012194057842 41.82200874856711 O 0.0 **** -0.82
3716 H 49.614220926527906 3.7170630336071326 40.940240306857824 H 0.0 **** 0.41
3717 H 49.993369875071465 3.7328643814994535 42.55423609119505 H 0.0 **** 0.41
3718 O 26.362021071401426 42.724442204957334 47.480868841172544 O 0.0 **** -0.82
3719 H 26.376999957097183 43.04216892442156 48.44028236209173 H 0.0 **** 0.41
3720 H 25.430697920042096 42.88431871654531 47.14933375113652 H 0.0 **** 0.41
3721 O 26.068660541298044 23.096386468414323 31.4362744037317 O 0.0 **** -0.82
3722 H 26.16508829561513 22.17386125553972 31.020062892432847 H 0.0 **** 0.41
3723 H 26.84330529897083 23.695330531714603 31.211012354884417 H 0.0 **** 0.41
3724 O 48.64453609999141 36.082072533711 32.812330207490305 O 0.0 **** -0.82
3725 H 49.0136977039158 36.56322746236565 31.991779634687923 H 0.0 **** 0.41
3726 H 48.155441682547504 36.73961958436181 33.44749787995815 H 0.0 **** 0.41
3727 O 26.841571746898534 13.331214916905225 46.68336658599658 O 0.0 **** -0.82
3728 H 27.795006769376176 13.268040214251684 46.98758956435135 H 0.0 **** 0.41
3729 H 26.856249215914843 13.033443116266369 45.67434046809678 H 0.0 **** 0.41
3730 O 34.72502139726099 36.70681642676674 27.237413991690765 O 0.0 **** -0.82
3731 H 34.33226667207161 37.453822753163905 26.757114981953197 H 0.0 **** 0.41
3732 H 35.72082237725857 36.63663985004331 27.15559792673659 H 0.0 **** 0.41
3733 O 29.77388297444972 48.853365237732845 42.94439455319426 O 0.0 **** -0.82
3734 H 29.948264527050924 47.88390507388699 43.069407227419205 H 0.0 **** 0.41
3735 H 28.80170160069659 48.85884069958362 42.71322068862952 H 0.0 **** 0.41
3736 O 5.314197257593559 49.33821401763832 23.878145067065123 O 0.0 **** -0.82
3737 H 5.815200687293876 50.07703854052701 24.372962216542536 H 0.0 **** 0.41
3738 H 5.179567676663688 48.80569485471872 24.69230660054052 H 0.0 **** 0.41
3739 O 45.04650220460995 27.113358814660124 12.798185926142658 O 0.0 **** -0.82
3740 H 44.608924615391324 26.184234428672692 12.611202542444346 H 0.0 **** 0.41
3741 H 44.352390638825696 27.766745865640903 12.500658536448455 H 0.0 **** 0.41
3742 O 9.449145018821447 39.05811638710334 38.164123052945385 O 0.0 **** -0.82
3743 H 10.114486091187736 38.26308983164861 38.12337070955891 H 0.0 **** 0.41
3744 H 8.536767709204852 38.66901172198301 38.27334520105297 H 0.0 **** 0.41
3745 O 32.69329822553072 7.390435371961551 49.492574742236116 O 0.0 **** -0.82
3746 H 33.453246300133145 7.455470024680025 48.778258111578694 H 0.0 **** 0.41
3747 H 33.221151022884264 7.294381327935909 50.39709626959929 H 0.0 **** 0.41
3748 O 47.873000186619905 16.64458434104317 30.411238753534853 O 0.0 **** -0.82
3749 H 47.29562945371151 16.935972666223126 31.218291127953226 H 0.0 **** 0.41
3750 H 47.713288651411006 15.669424835223943 30.246143344914167 H 0.0 **** 0.41
3751 O 5.794024230848403 30.136439631650845 44.02539890771264 O 0.0 **** -0.82
3752 H 5.684053702079592 31.11164075998893 44.17152339397804 H 0.0 **** 0.41
3753 H 4.885805721238906 29.76306051304761 43.88172532432352 H 0.0 **** 0.41
3754 O 30.974469792347627 41.75298691160618 21.81230621583259 O 0.0 **** -0.82
3755 H 30.9840338814689 42.65032709845698 21.38231569050854 H 0.0 **** 0.41
3756 H 30.062650091568184 41.465327669705324 21.53748457931336 H 0.0 **** 0.41
3757 O 49.764077263087835 18.4915257749522 44.914861743954795 O 0.0 **** -0.82
3758 H 50.089177860983696 17.58133084016685 44.67336859532366 H 0.0 **** 0.41
3759 H 49.78331282731986 18.983329920331588 44.010274533600956 H 0.0 **** 0.41
3760 O 9.470405248036615 25.418127455391556 37.742298497867424 O 0.0 **** -0.82
3761 H 9.339200044730603 25.221096189192764 38.7715356091619 H 0.0 **** 0.41
3762 H 9.146535558464494 26.394085512345868 37.57170707760495 H 0.0 **** 0.41
3763 O 28.671060448018007 5.543536409654763 9.091230182698427 O 0.0 **** -0.82
3764 H 27.990412455673976 6.084333449493876 8.578093500771894 H 0.0 **** 0.41
3765 H 29.403220596771323 6.154410599240968 9.348514432503132 H 0.0 **** 0.41
3766 O 13.351879062737568 23.854352257863045 13.498667336143242 O 0.0 **** -0.82
3767 H 14.229718538273984 23.38572449988002 13.453126458845091 H 0.0 **** 0.41
3768 H 13.055981720657634 23.845893159295354 12.54197887218288 H 0.0 **** 0.41
3769 O 0.2763482269675023 30.87799811467167 12.946688461336791 O 0.0 **** -0.82
3770 H 1.262348174190963 30.677407837896823 12.7966977603125 H 0.0 **** 0.41
3771 H 0.20353016283490294 30.981762028746974 13.94264442957284 H 0.0 **** 0.41
3772 O 14.014847888042794 38.88006724740865 12.994943854708094 O 0.0 **** -0.82
3773 H 13.55278821028298 37.987263039091815 12.803992256374789 H 0.0 **** 0.41
3774 H 14.023273090349623 39.43676531028197 12.181571073867396 H 0.0 **** 0.41
3775 O 21.437451298039555 6.8361166907461115 43.710131538502004 O 0.0 **** -0.82
3776 H 20.82152075014435 6.1072636338969115 44.00966913239314 H 0.0 **** 0.41
3777 H 21.21600164560123 7.513083380704671 44.422845280334215 H 0.0 **** 0.41
3778 O 1.4863479034747602 14.66007093155728 28.972729209743765 O 0.0 **** -0.82
3779 H 0.5400917840767827 14.511214014066303 28.741746673215076 H 0.0 **** 0.41
3780 H 1.6264996764954762 14.31842147233295 29.946778565073817 H 0.0 **** 0.41
3781 O 19.91868174949549 41.50438076399081 6.542884091870654 O 0.0 **** -0.82
3782 H 19.037746399357143 41.508038355471925 7.001895582403556 H 0.0 **** 0.41
3783 H 19.912995794979736 40.590499884947775 6.077796703812879 H 0.0 **** 0.41
3784 O 0.9605346628889055 34.65953413994607 31.114626525250532 O 0.0 **** -0.82
3785 H 0.01842373879312512 34.734815903611576 30.715837059693 H 0.0 **** 0.41
3786 H 1.2925659093780264 35.632349871323306 31.326772271409162 H 0.0 **** 0.41
3787 O 21.86233341703195 47.572763557995415 35.78048235272402 O 0.0 **** -0.82
3788 H 21.699589754284606 48.312565460653616 36.52238049590154 H 0.0 **** 0.41
3789 H 22.091996232148706 48.0801861779825 34.96533744515763 H 0.0 **** 0.41
3790 O 18.693434958831013 41.41069460955888 35.970713997721646 O 0.0 **** -0.82
3791 H 18.49591584680448 42.416846950937504 36.1475027831402 H 0.0 **** 0.41
3792 H 19.655772473464612 41.17832425443091 36.282101193476784 H 0.0 **** 0.41
3793 O 23.430738413044587 12.234339600985392 25.395981636484496 O 0.0 **** -0.82
3794 H 23.065113442556708 12.907081551100147 24.688564755676087 H 0.0 **** 0.41
3795 H 23.262811684841274 11.248393486971084 25.08378545520669 H 0.0 **** 0.41
3796 O 47.31865255671838 25.270295646471084 35.66140302100785 O 0.0 **** -0.82
3797 H 47.5021871908333 26.19703095680054 35.226880020780804 H 0.0 **** 0.41
3798 H 48.06960935638711 25.037837230525316 36.31279848330782 H 0.0 **** 0.41
3799 O 7.401159953070945 38.73615639152456 12.864540394886689 O 0.0 **** -0.82
3800 H 7.129332539460222 37.75963372175478 12.74111711157338 H 0.0 **** 0.41
3801 H 7.882731849206486 39.14254842629478 12.02502787547786 H 0.0 **** 0.41
3802 O 21.44442779963027 12.793627027872589 49.56014143226036 O 0.0 **** -0.82
3803 H 22.240835492385347 13.396871738864938 49.72922499126749 H 0.0 **** 0.41
3804 H 21.226693552596753 12.858004060903614 48.5641381643879 H 0.0 **** 0.41
3805 O 48.373068993426635 21.472888945014077 33.12429223595722 O 0.0 **** -0.82
3806 H 49.29555598337092 21.64766008913253 32.7054490241084 H 0.0 **** 0.41
3807 H 47.880290681999014 21.00516255706887 32.35828806250322 H 0.0 **** 0.41
3808 O 38.8698459785602 34.30521973442639 37.291109213515135 O 0.0 **** -0.82
3809 H 38.258862272416394 35.040618248979904 37.45796447964199 H 0.0 **** 0.41
3810 H 38.6003994428698 33.667962155893406 38.06138006199675 H 0.0 **** 0.41
3811 O 26.631311557918377 20.664932713920557 10.720776388387637 O 0.0 **** -0.82
3812 H 26.286015090711196 21.022566945150125 11.604354029012054 H 0.0 **** 0.41
3813 H 26.63503792956929 19.65513547680763 10.79690923574965 H 0.0 **** 0.41
3814 O 9.861159324491085 36.04857828597326 34.90762333095932 O 0.0 **** -0.82
3815 H 10.542719216789362 36.43962955979496 34.257015439794515 H 0.0 **** 0.41
3816 H 10.366008354103627 35.401108718501824 35.437363103130515 H 0.0 **** 0.41
3817 O 40.01523207574634 40.34621716228681 0.7552126509892361 O 0.0 **** -0.82
3818 H 39.2959746119662 39.99944519757323 0.1317638118940181 H 0.0 **** 0.41
3819 H 39.89630282311803 41.29883822263926 0.8438306544708212 H 0.0 **** 0.41
3820 O 33.740887302120214 0.16874698796545573 19.88568447002508 O 0.0 **** -0.82
3821 H 34.22733808070917 -0.006044508965878492 19.061154817774966 H 0.0 **** 0.41
3822 H 33.972149682589155 -0.5862711413516379 20.53943293307318 H 0.0 **** 0.41
3823 O 32.22722798411176 18.011123407778342 44.84614464358248 O 0.0 **** -0.82
3824 H 32.17668469767369 17.525021870309615 45.73088779838469 H 0.0 **** 0.41
3825 H 31.495441259138353 17.594095029577602 44.25029384116303 H 0.0 **** 0.41
3826 O 2.083881249071856 17.722800340450167 36.09902463289851 O 0.0 **** -0.82
3827 H 1.927208094051853 18.48738129327311 36.748864365624414 H 0.0 **** 0.41
3828 H 3.0192570966430483 17.32205904216596 35.961275039775586 H 0.0 **** 0.41
3829 O 14.943385801480769 14.206687930872334 38.85790422549359 O 0.0 **** -0.82
3830 H 15.306986075904424 13.242673407432825 38.96536279678041 H 0.0 **** 0.41
3831 H 15.402855377708747 14.74532692215908 39.485398622303165 H 0.0 **** 0.41
3832 O 44.19726301571146 9.054001598884602 35.52037736462787 O 0.0 **** -0.82
3833 H 44.4945447131723 9.926449408548129 35.82796731020445 H 0.0 **** 0.41
3834 H 43.37120005658505 8.826510734684673 36.01983350808527 H 0.0 **** 0.41
3835 O 31.852648610515654 14.338030529913041 15.439585732531416 O 0.0 **** -0.82
3836 H 31.508289142186598 14.283476543868389 14.503894490356453 H 0.0 **** 0.41
3837 H 31.230212091133332 13.660177567133474 15.90847452224002 H 0.0 **** 0.41
3838 O 25.560775817751647 34.558335991540254 28.28420544888347 O 0.0 **** -0.82
3839 H 26.010414209207124 35.14597958817684 29.016214767387623 H 0.0 **** 0.41
3840 H 26.39629953607288 34.251982870808845 27.705605515419876 H 0.0 **** 0.41
3841 O 23.715599322385014 7.949551016376455 46.19465117738166 O 0.0 **** -0.82
3842 H 23.689765602422703 8.713793981168813 45.53751264045662 H 0.0 **** 0.41
3843 H 24.56358517147146 7.479356638521961 45.987538805378826 H 0.0 **** 0.41
3844 O 22.813937080957494 19.509058250282045 27.715630381029143 O 0.0 **** -0.82
3845 H 23.345782995746404 19.71140431337074 28.574805101106787 H 0.0 **** 0.41
3846 H 22.720183407019615 20.42358160773041 27.205963648926023 H 0.0 **** 0.41
3847 O 3.4647941995996163 32.11330773697239 33.0023322721352 O 0.0 **** -0.82
3848 H 3.52314470945835 32.63099553462265 32.16739334492788 H 0.0 **** 0.41
3849 H 3.6147644402822223 32.80536712840145 33.757096834114 H 0.0 **** 0.41
3850 O 2.8196804458291185 22.129623416205455 31.5819175167764 O 0.0 **** -0.82
3851 H 2.2680933787059234 21.682132040045957 32.257176798766665 H 0.0 **** 0.41
3852 H 3.537246920573002 21.489897059959212 31.227061381793263 H 0.0 **** 0.41
3853 O 29.796238916876668 18.639634441429152 9.620605670891168 O 0.0 **** -0.82
3854 H 29.88737630381245 18.24454526756488 8.690807287474378 H 0.0 **** 0.41
3855 H 30.482370271778183 19.461671772360887 9.61343894385941 H 0.0 **** 0.41
3856 O 32.461000193530516 39.13158049965446 14.043457841258252 O 0.0 **** -0.82
3857 H 33.066653460104305 38.43561279110197 13.683037042976759 H 0.0 **** 0.41
3858 H 31.516954004792748 38.87738921807144 13.839167381344685 H 0.0 **** 0.41
3859 O 34.87039384915687 46.79731365250166 20.099426496294573 O 0.0 **** -0.82
3860 H 35.04067343319761 46.825971180551555 21.140193247834283 H 0.0 **** 0.41
3861 H 34.009657773333544 46.236073015667834 20.02604305058901 H 0.0 **** 0.41
3862 O 13.15912796279885 48.2414124278524 36.41657542038936 O 0.0 **** -0.82
3863 H 13.972051519268998 48.52052865590871 35.837595969855826 H 0.0 **** 0.41
3864 H 13.023199823098818 47.20407018442162 36.329992404893844 H 0.0 **** 0.41
3865 O 6.232583374749482 22.12253337112614 30.689086785599372 O 0.0 **** -0.82
3866 H 6.8739366853551385 21.38067076661929 30.528832158450086 H 0.0 **** 0.41
3867 H 6.747452421048455 22.994173921474413 30.759154699224254 H 0.0 **** 0.41
3868 O 18.4437838118256 37.99037695190876 25.032569131526273 O 0.0 **** -0.82
3869 H 18.80344217226998 38.55809278088216 25.797222755123244 H 0.0 **** 0.41
3870 H 17.721200973961373 37.37503031925422 25.43276802044905 H 0.0 **** 0.41
3871 O 27.270547600827 29.636274842556436 4.765121387231545 O 0.0 **** -0.82
3872 H 27.94596267788216 29.23409642504158 5.439469896335197 H 0.0 **** 0.41
3873 H 26.581748414958746 30.102611110192264 5.411850696005921 H 0.0 **** 0.41
3874 O 1.3404525517637045 23.677961691536595 35.223246422863106 O 0.0 **** -0.82
3875 H 1.0178858057012348 24.087708427548527 34.32893813782011 H 0.0 **** 0.41
3876 H 2.2313960168000957 24.2140248307463 35.26315317719786 H 0.0 **** 0.41
3877 O 18.21289140781724 4.6798503702872765 32.877915299148945 O 0.0 **** -0.82
3878 H 18.62596470253924 5.00386045770135 31.976806233294745 H 0.0 **** 0.41
3879 H 17.331912687032624 4.206915037630374 32.649126163372266 H 0.0 **** 0.41
3880 O 18.476515491860273 15.792470174092632 42.41765695951849 O 0.0 **** -0.82
3881 H 18.076880463842862 16.061768953996108 43.360054672751055 H 0.0 **** 0.41
3882 H 19.51882085427994 15.846137626483566 42.500076081703284 H 0.0 **** 0.41
3883 O 37.41307680546311 49.07196228518156 40.66791918269694 O 0.0 **** -0.82
3884 H 37.71676072832329 49.97396762265396 40.586686497242276 H 0.0 **** 0.41
3885 H 36.51395326338468 48.9738192150653 40.12839296691923 H 0.0 **** 0.41
3886 O 37.37500369058831 40.74437204152032 15.847374187077017 O 0.0 **** -0.82
3887 H 36.87674862635152 40.01188024199943 16.36119915660599 H 0.0 **** 0.41
3888 H 36.64818886047723 41.16608395510525 15.269479999841074 H 0.0 **** 0.41
3889 O 23.185295181070288 25.882773196517107 33.45965397982903 O 0.0 **** -0.82
3890 H 22.502696407873827 25.8792840547015 32.70239058621619 H 0.0 **** 0.41
3891 H 22.925539109836407 25.01004106718766 33.91901424167448 H 0.0 **** 0.41
3892 O 16.489576640952276 16.867479115262036 0.23738555629564606 O 0.0 **** -0.82
3893 H 16.37362281038474 16.186262295110097 0.9305133859958659 H 0.0 **** 0.41
3894 H 15.493800477859327 17.050767099658714 0.0037701102263554276 H 0.0 **** 0.41
3895 O 2.381353264431437 14.10599910020345 9.823787805349475 O 0.0 **** -0.82
3896 H 2.4295628173145865 15.120280422188298 9.779157544284757 H 0.0 **** 0.41
3897 H 2.952896049433639 13.820298241107539 10.60939887399904 H 0.0 **** 0.41
3898 O 36.85402931624718 17.088655857227025 33.18893047913365 O 0.0 **** -0.82
3899 H 36.933953457946544 17.06093960023386 34.17721384653024 H 0.0 **** 0.41
3900 H 35.83926867333037 17.291849900692497 33.08655925430288 H 0.0 **** 0.41
3901 O 13.549927861816833 48.31762328441035 21.800230025968208 O 0.0 **** -0.82
3902 H 13.999754887342824 47.613949817410706 22.34647186700908 H 0.0 **** 0.41
3903 H 14.321688836518462 48.672031585379514 21.195129190207695 H 0.0 **** 0.41
3904 O 31.768779092828687 41.47036631999919 30.908090480394492 O 0.0 **** -0.82
3905 H 31.215271173634463 40.80815815909892 30.381191452143185 H 0.0 **** 0.41
3906 H 31.08147900505283 42.045778344007466 31.413266986867626 H 0.0 **** 0.41
3907 O 8.002992033402448 9.963823777531758 45.92589994975819 O 0.0 **** -0.82
3908 H 8.26836933205116 10.362069088900654 45.040978015216 H 0.0 **** 0.41
3909 H 6.993290270163624 9.89059196565217 46.04308699445483 H 0.0 **** 0.41
3910 O 37.62557037295838 43.45831978844864 8.253482328184463 O 0.0 **** -0.82
3911 H 37.20955544360362 43.63592079790739 7.336871400887577 H 0.0 **** 0.41
3912 H 36.92101319932419 43.76440515395 8.928111321912118 H 0.0 **** 0.41
3913 O 30.129036666992395 44.9244591446131 30.011432305492633 O 0.0 **** -0.82
3914 H 29.40996889689863 45.625529734162015 30.061814550176077 H 0.0 **** 0.41
3915 H 30.90433601479809 45.394945008844424 30.41149094438108 H 0.0 **** 0.41
3916 O 5.921161383525288 34.35199449053013 23.57793105452601 O 0.0 **** -0.82
3917 H 5.892767608565241 35.38355061595393 23.55029605488995 H 0.0 **** 0.41
3918 H 5.412822744403174 34.02796501011657 22.71535854778213 H 0.0 **** 0.41
3919 O 14.196894978802101 46.313263256219955 42.79671463911585 O 0.0 **** -0.82
3920 H 14.667579379467702 47.049300724343794 43.363420611829845 H 0.0 **** 0.41
3921 H 14.205669257161809 46.600089041259544 41.851028158349365 H 0.0 **** 0.41
3922 O 35.53201198672982 41.98136028059719 0.5588365795812841 O 0.0 **** -0.82
3923 H 35.32230112063229 40.999347596157605 0.45293558509585485 H 0.0 **** 0.41
3924 H 35.5002796441956 42.33278810580421 -0.43588178856903426 H 0.0 **** 0.41
3925 O 19.675043695765197 25.52974080325226 4.771734571532074 O 0.0 **** -0.82
3926 H 18.887713653532195 25.390133809225276 5.394544872627612 H 0.0 **** 0.41
3927 H 19.882272890829963 26.55997840332279 4.773377015987056 H 0.0 **** 0.41
3928 O 14.74318087698741 31.96361795138086 38.118955903108144 O 0.0 **** -0.82
3929 H 14.416135553121933 32.29735645753653 39.04012518044942 H 0.0 **** 0.41
3930 H 13.879331383035222 31.585448387074784 37.70600016413834 H 0.0 **** 0.41
3931 O 19.61261338079805 40.475569315130635 3.612995522637881 O 0.0 **** -0.82
3932 H 19.195383271726797 41.37778551969246 3.7703609829731732 H 0.0 **** 0.41
3933 H 18.93335057901177 39.77632251601566 3.880509362323835 H 0.0 **** 0.41
3934 O 42.36534427017341 30.72220883585912 34.99649169573941 O 0.0 **** -0.82
3935 H 42.18466438850158 29.7885506295219 35.26437836062854 H 0.0 **** 0.41
3936 H 43.33095373833479 30.709856334073557 34.764567286831195 H 0.0 **** 0.41
3937 O 36.904265253018465 12.956264731926968 7.3594636959104776 O 0.0 **** -0.82
3938 H 36.11690464123255 13.606152782286863 7.225770573532884 H 0.0 **** 0.41
3939 H 36.65714128252467 12.34288390253646 6.506004538273423 H 0.0 **** 0.41
3940 O 43.55898190468729 33.49119756631872 49.854623406383666 O 0.0 **** -0.82
3941 H 44.37911005279563 33.13147498546085 49.344569175135256 H 0.0 **** 0.41
3942 H 43.759113562812644 33.44132743705812 50.86962338535056 H 0.0 **** 0.41
3943 O 36.99044744949098 35.11250304041957 19.725021909061333 O 0.0 **** -0.82
3944 H 37.85178958388419 35.36015967790194 19.21840442567032 H 0.0 **** 0.41
3945 H 36.598632628214524 34.31412913842565 19.215950183001702 H 0.0 **** 0.41
3946 O 5.901396226536249 24.32675010876556 49.694374039244934 O 0.0 **** -0.82
3947 H 5.9403387154737 25.041186656418564 50.380838163315595 H 0.0 **** 0.41
3948 H 6.746888892935786 24.49435657909903 49.1275999195979 H 0.0 **** 0.41
3949 O 48.00422241063784 9.622635323636826 11.690515501329486 O 0.0 **** -0.82
3950 H 47.20627602392613 8.973179305080265 11.897123372624208 H 0.0 **** 0.41
3951 H 48.28630680086373 9.961274429454416 12.60541273148759 H 0.0 **** 0.41
3952 O 41.178222250295676 21.17465507729681 6.067660884474513 O 0.0 **** -0.82
3953 H 41.70911860864146 20.294443669292733 6.195781105652188 H 0.0 **** 0.41
3954 H 40.964228588840186 21.54236076043342 7.019291274211348 H 0.0 **** 0.41
3955 O 42.21195270689056 4.078897736158365 33.823130563777305 O 0.0 **** -0.82
3956 H 41.336488026174116 4.564678855136887 33.60533802386189 H 0.0 **** 0.41
3957 H 42.84628814749323 4.875500309632474 34.013646197573735 H 0.0 **** 0.41
3958 O 11.373295930194269 20.34157083783467 8.614591823880176 O 0.0 **** -0.82
3959 H 11.47812730374925 20.648332048315837 9.594754790639882 H 0.0 **** 0.41
3960 H 10.797546434898363 20.953931594822954 8.09598938026717 H 0.0 **** 0.41
3961 O 4.2083824701541275 38.974828768223354 27.393708665352076 O 0.0 **** -0.82
3962 H 4.571515693182619 39.33077557309109 26.486904965883216 H 0.0 **** 0.41
3963 H 3.3341978916334867 39.52059091430621 27.509708194475355 H 0.0 **** 0.41
3964 O 15.784890792985674 15.295590825971148 31.059791482732354 O 0.0 **** -0.82
3965 H 16.110605909285248 15.050718965548455 30.120685126529843 H 0.0 **** 0.41
3966 H 15.819750634813719 16.3237141366135 31.05064843725867 H 0.0 **** 0.41
3967 O 34.132949479804104 5.146883238491014 4.824926389949838 O 0.0 **** -0.82
3968 H 33.22459576521837 5.606319871372797 5.035067250726983 H 0.0 **** 0.41
3969 H 34.258975308153836 4.369997381657875 5.466589412717375 H 0.0 **** 0.41
3970 O 37.82637033165238 19.38572644887458 6.941286132429738 O 0.0 **** -0.82
3971 H 38.383943236115556 18.558813954356495 6.9031629253537545 H 0.0 **** 0.41
3972 H 38.11237752998476 19.91315768199971 7.7712645359480845 H 0.0 **** 0.41
3973 O 26.00478990514632 1.2773507253299488 9.173401779489618 O 0.0 **** -0.82
3974 H 25.43645961017368 1.3553757814204122 8.361874151358366 H 0.0 **** 0.41
3975 H 25.908818135855146 0.34265775072931803 9.44256156168854 H 0.0 **** 0.41
3976 O 28.083575556945185 37.633014876219406 26.72084583254709 O 0.0 **** -0.82
3977 H 28.733033054484256 37.55101260551691 25.95046124417091 H 0.0 **** 0.41
3978 H 27.25533715968221 37.12134966097451 26.508591462395263 H 0.0 **** 0.41
3979 O 18.033325809890943 26.00392761860485 43.829606367998316 O 0.0 **** -0.82
3980 H 17.974318407576387 25.244967982670317 44.470696383845834 H 0.0 **** 0.41
3981 H 17.83485327345249 26.87970254419278 44.27689333911807 H 0.0 **** 0.41
3982 O 41.60410734447021 10.73222932716022 46.6970020762366 O 0.0 **** -0.82
3983 H 40.99835122168463 9.963578508501385 46.48645959664761 H 0.0 **** 0.41
3984 H 42.40109674680288 10.72064021619046 46.02635290270559 H 0.0 **** 0.41
3985 O 4.927395345558159 24.939676813533982 11.310147700108871 O 0.0 **** -0.82
3986 H 4.772231193788298 25.196587502735333 10.303089545004447 H 0.0 **** 0.41
3987 H 5.685010908944552 25.603235299612493 11.526812660094905 H 0.0 **** 0.41
3988 O 6.7961819544521305 34.7384823900274 31.076479667436416 O 0.0 **** -0.82
3989 H 7.317153832358784 35.56956895053954 31.304396316586434 H 0.0 **** 0.41
3990 H 6.991772159625725 34.18027837624793 31.933039756069448 H 0.0 **** 0.41
3991 O 45.75998806711838 40.84050677155654 44.896714341703195 O 0.0 **** -0.82
3992 H 45.3303059789648 41.09868792429792 45.769110387525785 H 0.0 **** 0.41
3993 H 44.96000232642081 40.63867586058094 44.30216113914903 H 0.0 **** 0.41
3994 O 33.36296877248016 0.08894930929857178 46.81773004022189 O 0.0 **** -0.82
3995 H 32.361331233722154 0.1553680895891482 47.10664189246558 H 0.0 **** 0.41
3996 H 33.70634229448841 1.0339963087725377 46.949134987331554 H 0.0 **** 0.41
3997 O 23.030623610347746 44.78883341655051 37.29760146307674 O 0.0 **** -0.82
3998 H 22.09708110856587 44.857515189935135 37.64705079695374 H 0.0 **** 0.41
3999 H 22.940289209648057 44.7304825434922 36.26120807094164 H 0.0 **** 0.41
4000 O 23.02014916127336 44.827398490404704 34.50854122333749 O 0.0 **** -0.82
4001 H 23.74278431572337 45.54374922489564 34.48472283944227 H 0.0 **** 0.41
4002 H 23.28794870707561 43.97659215053986 34.02278595473505 H 0.0 **** 0.41
4003 O 20.968560205661984 29.853103364473245 26.970976562371998 O 0.0 **** -0.82
4004 H 20.74357128944256 30.020069680953146 27.9617866040032 H 0.0 **** 0.41
4005 H 20.094563595405727 30.046221063976418 26.473878969832974 H 0.0 **** 0.41
4006 O 6.448584142440444 5.705897679350972 6.884298228784496 O 0.0 **** -0.82
4007 H 5.937660899152388 5.465769462747256 7.764320876378176 H 0.0 **** 0.41
4008 H 6.5058126833085135 4.864181612234943 6.388846671921355 H 0.0 **** 0.41
4009 O 32.71857260109667 0.978983709985549 27.27406950910534 O 0.0 **** -0.82
4010 H 32.75411603448774 1.2552343007979516 26.263686764668105 H 0.0 **** 0.41
4011 H 33.4375893198775 0.25420094924011494 27.31580048359601 H 0.0 **** 0.41
4012 O 37.84090796195639 39.72187950793943 41.64532749269345 O 0.0 **** -0.82
4013 H 38.2874092745758 39.524137345972115 40.74447028293626 H 0.0 **** 0.41
4014 H 37.473741049888005 40.703276977157046 41.5465808257713 H 0.0 **** 0.41
4015 O 7.114207464622979 7.360814427092673 49.043872417732615 O 0.0 **** -0.82
4016 H 7.091205462324609 8.066018733692403 49.79575536838736 H 0.0 **** 0.41
4017 H 6.318935410004158 7.458023515685316 48.457033939663496 H 0.0 **** 0.41
4018 O 43.048720049431225 38.132400767861675 37.98280002841828 O 0.0 **** -0.82
4019 H 42.782338262259174 37.21826234152927 37.58164902161448 H 0.0 **** 0.41
4020 H 42.90375064852734 38.12059392312718 38.94873446675619 H 0.0 **** 0.41
4021 O 13.570449516118794 45.646029260699514 36.83300632146859 O 0.0 **** -0.82
4022 H 14.351739895893424 44.99853351282879 36.92391845142673 H 0.0 **** 0.41
4023 H 12.813367830135602 45.11077525159015 36.40290860542064 H 0.0 **** 0.41
4024 O 19.309907898919157 46.736099572488875 49.58358724791945 O 0.0 **** -0.82
4025 H 19.36462084822884 46.47968251931573 48.629375079430275 H 0.0 **** 0.41
4026 H 20.342338470345997 46.91146904987508 49.7026458825985 H 0.0 **** 0.41
4027 O 18.568406662881017 17.707422105964728 40.64506503527546 O 0.0 **** -0.82
4028 H 18.29434123891302 16.976131178225003 41.34438438946187 H 0.0 **** 0.41
4029 H 18.672047854204493 18.652150255617794 40.99203162467004 H 0.0 **** 0.41
4030 O 1.0218384584186282 28.188531355026374 7.357717525651184 O 0.0 **** -0.82
4031 H 0.7354809569546745 28.55018788822392 8.290414252646526 H 0.0 **** 0.41
4032 H 1.0517554804922327 29.030573856294666 6.780673104482464 H 0.0 **** 0.41
4033 O 8.28739427740215 1.8881236057834343 13.986752868186333 O 0.0 **** -0.82
4034 H 7.5982703883403175 2.545893511001502 13.512897034092596 H 0.0 **** 0.41
4035 H 8.185641356178465 2.0232639012249507 14.974798049912106 H 0.0 **** 0.41
4036 O 3.064320426443139 44.43142975648816 44.10086242394789 O 0.0 **** -0.82
4037 H 3.0070780536494084 43.4232938729327 43.86439820476855 H 0.0 **** 0.41
4038 H 3.5681511786143005 44.768499858545105 43.25398409204277 H 0.0 **** 0.41
4039 O 49.97453459784355 25.16271987078448 33.556131165358835 O 0.0 **** -0.82
4040 H 49.870672904776775 26.13424464000945 33.45416000303633 H 0.0 **** 0.41
4041 H 49.06849805238497 24.694140917347752 33.36974355202894 H 0.0 **** 0.41
4042 O 19.010291723011886 10.223463636984967 8.910636984877357 O 0.0 **** -0.82
4043 H 19.546201214109953 10.418542034190246 8.034795768160734 H 0.0 **** 0.41
4044 H 18.320695727298357 9.581379065917957 8.601823794328737 H 0.0 **** 0.41
4045 O 18.212260325800226 20.906710451061116 11.48356358005222 O 0.0 **** -0.82
4046 H 17.22659312958082 20.901431486286942 11.311018768753318 H 0.0 **** 0.41
4047 H 18.472625348729583 19.93834060900714 11.124778439276342 H 0.0 **** 0.41
4048 O 30.391184583061463 13.036100351409331 17.450065053645414 O 0.0 **** -0.82
4049 H 29.450677874411657 13.255836343790158 17.1008599313384 H 0.0 **** 0.41
4050 H 30.508375377836504 13.288275393002294 18.416146965806206 H 0.0 **** 0.41
4051 O 43.68732914897742 46.291869403001115 3.864465934890528 O 0.0 **** -0.82
4052 H 42.75105636772423 45.79236592637941 3.712106206827947 H 0.0 **** 0.41
4053 H 44.42339148428965 45.592126888735656 3.6332820455768866 H 0.0 **** 0.41
4054 O 37.1944172461537 37.26390832434738 4.749495633514387 O 0.0 **** -0.82
4055 H 36.92094245674194 38.158646834456775 4.3960822937222845 H 0.0 **** 0.41
4056 H 36.65235771286885 37.267514891378795 5.611777386409962 H 0.0 **** 0.41
4057 O 13.688659100498704 26.95818688638052 43.187834134617866 O 0.0 **** -0.82
4058 H 13.47651510822891 26.62014180865822 42.26017572542975 H 0.0 **** 0.41
4059 H 12.786462443458909 26.936345605478092 43.642017292199576 H 0.0 **** 0.41
4060 O 4.671298798275906 38.41739164309184 17.98723964695651 O 0.0 **** -0.82
4061 H 5.676607607035827 38.39921395399932 18.13706176372891 H 0.0 **** 0.41
4062 H 4.47676634502956 37.67675283944441 17.401795493080442 H 0.0 **** 0.41
4063 O 6.986429650384946 39.20547195651505 2.5099523811215567 O 0.0 **** -0.82
4064 H 6.887388901478489 40.251484177640805 2.5307135344568423 H 0.0 **** 0.41
4065 H 6.6048439468527125 38.910461953212526 3.390392717214315 H 0.0 **** 0.41
4066 O 7.295595543349759 37.25549649243328 26.147645061628975 O 0.0 **** -0.82
4067 H 6.395000901707983 37.28218286075766 25.708569804709757 H 0.0 **** 0.41
4068 H 7.20406917239913 36.67585038312075 26.964640958661125 H 0.0 **** 0.41
4069 O 16.6984988065514 28.118637649759783 21.608086104273443 O 0.0 **** -0.82
4070 H 16.542915829699027 28.022747562276173 22.63093224939551 H 0.0 **** 0.41
4071 H 16.7709444326278 29.127771289975996 21.390232034615448 H 0.0 **** 0.41
4072 O 26.6879747870421 25.97259485335198 20.457901276281465 O 0.0 **** -0.82
4073 H 26.89960079132341 26.950916100214023 20.7636727840672 H 0.0 **** 0.41
4074 H 26.877379084779264 25.967521294311315 19.490762420119168 H 0.0 **** 0.41
4075 O 42.63545961387821 4.572584610097536 26.315885017065128 O 0.0 **** -0.82
4076 H 43.20282007374151 3.7856205311567948 26.525174634314773 H 0.0 **** 0.41
4077 H 41.766668234187705 4.2585566591429185 26.669367421418062 H 0.0 **** 0.41
4078 O 25.746982048836905 38.585096652935675 41.82057711950138 O 0.0 **** -0.82
4079 H 25.045040040498584 39.17718184454683 42.223333674411464 H 0.0 **** 0.41
4080 H 25.393238044252712 37.652817931494944 41.92303399642504 H 0.0 **** 0.41
4081 O 22.55106698739079 33.238490713187446 24.46471702697751 O 0.0 **** -0.82
4082 H 23.25633393126289 32.9692240663035 23.810399374073363 H 0.0 **** 0.41
4083 H 22.5779166702877 32.585151667825485 25.21861940693782 H 0.0 **** 0.41
4084 O 2.515462163799647 5.981114502342557 33.888139156448844 O 0.0 **** -0.82
4085 H 2.4684213075305763 6.924764068337325 34.21663534956798 H 0.0 **** 0.41
4086 H 3.4592314623523066 5.61185157125265 34.039436949360386 H 0.0 **** 0.41
4087 O 45.45778255814755 2.811785165477239 0.20556986339418623 O 0.0 **** -0.82
4088 H 45.983636475802015 2.919788427951913 -0.6598516778777679 H 0.0 **** 0.41
4089 H 45.49880498968362 1.776991852865245 0.41852705994436074 H 0.0 **** 0.41
4090 O 24.139173739001635 3.654231215301401 36.131690374042456 O 0.0 **** -0.82
4091 H 23.223154060701745 3.458193809403909 36.486838634700305 H 0.0 **** 0.41
4092 H 24.769085184728226 3.82926147778916 36.88455936980356 H 0.0 **** 0.41
4093 O 2.7904698675759434 30.36736933433352 43.64835041112838 O 0.0 **** -0.82
4094 H 2.893894432798888 29.344864991265204 43.56910170013755 H 0.0 **** 0.41
4095 H 1.919252885950037 30.634895163112184 43.33766835332016 H 0.0 **** 0.41
4096 O 31.761626216293664 7.575804413486747 5.53342960090149 O 0.0 **** -0.82
4097 H 31.012863052551626 8.291505009662576 5.478042358292929 H 0.0 **** 0.41
4098 H 32.48930300156205 7.978356053757371 5.022138786366043 H 0.0 **** 0.41
4099 O 20.30312899467519 7.216270358496877 38.60021531092432 O 0.0 **** -0.82
4100 H 20.892574607408108 7.360671705362386 37.78554518815453 H 0.0 **** 0.41
4101 H 20.887279848256497 6.711317384877447 39.25633349363798 H 0.0 **** 0.41
4102 O 14.833711317255732 22.913067289462678 47.50490014201728 O 0.0 **** -0.82
4103 H 15.579436906591821 23.49933715700841 47.806356638123354 H 0.0 **** 0.41
4104 H 14.021114092359841 23.203488307070216 48.035844388449036 H 0.0 **** 0.41
4105 O 23.828970196915982 37.76029278818967 34.700023089883985 O 0.0 **** -0.82
4106 H 23.963243307238503 38.60293520268987 35.263248289775944 H 0.0 **** 0.41
4107 H 24.75872793035098 37.29184660967056 34.68627707562015 H 0.0 **** 0.41
4108 O 16.88672445742158 14.198363689133231 10.794346905893288 O 0.0 **** -0.82
4109 H 17.561563184280132 13.536789785653326 10.435449461394299 H 0.0 **** 0.41
4110 H 16.60695691889383 14.844010270650088 9.97474111535422 H 0.0 **** 0.41
4111 O 36.30523240287802 43.44896217596731 10.817527073646245 O 0.0 **** -0.82
4112 H 36.562268080088145 42.48409034080955 10.80563963771527 H 0.0 **** 0.41
4113 H 35.622362126211804 43.42575626687274 11.572592997723744 H 0.0 **** 0.41
4114 O 13.554321081083788 30.100968479048476 43.206957504220185 O 0.0 **** -0.82
4115 H 13.82120207941361 29.181971993462195 42.8743171786657 H 0.0 **** 0.41
4116 H 12.546788432934532 30.089512131508588 43.4255567399174 H 0.0 **** 0.41
4117 O 16.348556701513736 31.006081166716676 21.292662057955344 O 0.0 **** -0.82
4118 H 16.279859541191882 31.031356015810236 22.31990963927384 H 0.0 **** 0.41
4119 H 15.471246716102364 31.183561967984684 20.874028759184206 H 0.0 **** 0.41
4120 O 17.404241972024423 47.37248374899945 43.78554935784561 O 0.0 **** -0.82
4121 H 17.353070437592805 46.41697919271156 44.21361015149212 H 0.0 **** 0.41
4122 H 18.1723502229206 47.782965275436766 44.29378927778147 H 0.0 **** 0.41
4123 O 2.7227094165810737 32.515752649526426 13.99407438639268 O 0.0 **** -0.82
4124 H 2.351480822179979 33.48234046185946 13.936251181521133 H 0.0 **** 0.41
4125 H 2.779184413884318 32.44722112605944 15.024593234999042 H 0.0 **** 0.41
4126 O 26.456314515112766 11.107697067653074 26.92751891163247 O 0.0 **** -0.82
4127 H 27.225016869069638 10.547268936401833 27.206505960568123 H 0.0 **** 0.41
4128 H 26.478529081163106 11.20769692649842 25.883067910976408 H 0.0 **** 0.41
4129 O 6.3785722661867155 46.26875455516658 33.39873347776889 O 0.0 **** -0.82
4130 H 6.038148828577519 45.31349512919138 33.259571843217685 H 0.0 **** 0.41
4131 H 7.020042373201825 46.36102950922334 32.52817049205136 H 0.0 **** 0.41
4132 O 38.039815551588774 47.60132336244363 6.908268475453639 O 0.0 **** -0.82
4133 H 38.77969680796914 47.10420185464112 6.442817802104166 H 0.0 **** 0.41
4134 H 37.967550057287056 48.56517297974044 6.591348095575334 H 0.0 **** 0.41
4135 O 14.440376763357719 37.68299383103104 24.60123797304659 O 0.0 **** -0.82
4136 H 13.488804131918108 37.3172170868449 24.400199918748413 H 0.0 **** 0.41
4137 H 15.135975468756044 37.0765141932676 24.181738435443993 H 0.0 **** 0.41
4138 O 35.18047990855261 28.58572501087975 32.91853718657848 O 0.0 **** -0.82
4139 H 35.29494204477831 28.95054617209948 33.85821697989197 H 0.0 **** 0.41
4140 H 34.33963877350573 29.113507031548878 32.576034702105694 H 0.0 **** 0.41
4141 O 3.1529308072913262 24.551857331991044 13.545680752445715 O 0.0 **** -0.82
4142 H 3.7787003522560716 24.76973223660343 12.792078459183474 H 0.0 **** 0.41
4143 H 3.4911670125552505 23.803113815294722 14.109772493782065 H 0.0 **** 0.41
4144 O 31.55888244197638 37.80664042175058 47.45510349170374 O 0.0 **** -0.82
4145 H 30.693804889825042 37.924267836461574 46.9173860306259 H 0.0 **** 0.41
4146 H 31.654266877509905 36.850035512884524 47.31571781606903 H 0.0 **** 0.41
4147 O 26.353815588693745 6.344688258018451 8.162433786139697 O 0.0 **** -0.82
4148 H 26.35999568099834 5.597921770074009 7.4308746225784255 H 0.0 **** 0.41
4149 H 25.59457050067181 6.957953884019155 7.797437174805699 H 0.0 **** 0.41
4150 O 30.761599499824527 9.626942470635612 31.532599906138298 O 0.0 **** -0.82
4151 H 29.72438593224801 9.564506485619688 31.43806441727202 H 0.0 **** 0.41
4152 H 31.10311934276967 8.694352389290572 31.24050515015304 H 0.0 **** 0.41
4153 O 27.42522884964189 31.536263593537107 43.474885878001636 O 0.0 **** -0.82
4154 H 27.039313100240435 32.056615949651025 42.642926426892345 H 0.0 **** 0.41
4155 H 26.623257995057916 31.433289388477682 44.094780397814645 H 0.0 **** 0.41
4156 O 15.704902695241714 44.28517910836989 1.7617486033856053 O 0.0 **** -0.82
4157 H 15.049618649528867 44.98656528579696 1.4064336010432328 H 0.0 **** 0.41
4158 H 15.54727618152767 44.03944988806468 2.6822123378569387 H 0.0 **** 0.41
4159 O 7.937539036548963 9.837715399446285 15.194580778877304 O 0.0 **** -0.82
4160 H 7.599300479299271 8.895359127944564 15.204457153159781 H 0.0 **** 0.41
4161 H 7.228689316330593 10.510666678258811 14.981909312720665 H 0.0 **** 0.41
4162 O 11.889131517851308 10.757319051560941 31.981757930471147 O 0.0 **** -0.82
4163 H 11.153306703138613 11.436710206137917 32.044105157941765 H 0.0 **** 0.41
4164 H 11.307677034153832 9.946482062109844 32.245044822464244 H 0.0 **** 0.41
4165 O 30.97495874219289 45.66318386233502 45.27263768690648 O 0.0 **** -0.82
4166 H 31.919249374603933 45.966601155676834 45.5993231624807 H 0.0 **** 0.41
4167 H 30.733169503578672 44.92852933814429 45.89666031430404 H 0.0 **** 0.41
4168 O 41.01596268752626 44.31381010037954 21.412874577561663 O 0.0 **** -0.82
4169 H 41.2414346741034 45.33357395890729 21.427882442667528 H 0.0 **** 0.41
4170 H 41.8853021901911 43.79282660492536 21.210102089670247 H 0.0 **** 0.41
4171 O 14.179159755769746 20.447577127638624 0.04770817622190293 O 0.0 **** -0.82
4172 H 14.077205445349207 19.85981525688978 0.8279144844057313 H 0.0 **** 0.41
4173 H 15.145995034925207 20.689016037244095 0.1653829413469694 H 0.0 **** 0.41
4174 O 3.990370617474568 8.340138796564773 20.295379166663167 O 0.0 **** -0.82
4175 H 2.964092308551571 8.055454014821436 20.319939627665274 H 0.0 **** 0.41
4176 H 4.416127191426369 8.20620697084518 21.192794066912533 H 0.0 **** 0.41
4177 O 12.3593182170135 1.0359333449245256 21.95468427850167 O 0.0 **** -0.82
4178 H 13.11142287457261 0.4233155466833112 21.746043417134214 H 0.0 **** 0.41
4179 H 12.31782321065414 1.5402254552764656 21.098899986410807 H 0.0 **** 0.41
4180 O 24.418772024621095 1.3013066393705983 34.446524504304094 O 0.0 **** -0.82
4181 H 24.437759353720384 1.9666081096610144 35.202551183279525 H 0.0 **** 0.41
4182 H 24.79964808780146 1.834323460512062 33.65489589711058 H 0.0 **** 0.41
4183 O 38.82127229422977 24.90677873903371 32.35835636042983 O 0.0 **** -0.82
4184 H 39.299462088485576 24.26871830047304 33.022573847847184 H 0.0 **** 0.41
4185 H 37.85555621208961 24.701702106863152 32.514654136999994 H 0.0 **** 0.41
4186 O 11.741395647025167 37.115871232480366 23.666074664671783 O 0.0 **** -0.82
4187 H 11.130685333486316 36.88877712378197 24.360060472149293 H 0.0 **** 0.41
4188 H 11.290278655426883 37.95035227631259 23.343099179390332 H 0.0 **** 0.41
4189 O 38.23248117147287 23.38132181434301 0.2342230428151595 O 0.0 **** -0.82
4190 H 38.1775224658432 22.890649075164564 1.1233370937702034 H 0.0 **** 0.41
4191 H 37.789601157051344 22.773291989490136 -0.4113667564541501 H 0.0 **** 0.41
4192 O 7.302886669495699 10.426656606862338 4.634273460302171 O 0.0 **** -0.82
4193 H 7.811426997495978 11.30056204930213 4.53825957050847 H 0.0 **** 0.41
4194 H 7.1729376073731075 10.256417452854123 5.6396280503642515 H 0.0 **** 0.41
4195 O 22.670960840697163 33.90984256983011 21.329834946745702 O 0.0 **** -0.82
4196 H 22.192488318163868 33.00247039457869 21.358696250995507 H 0.0 **** 0.41
4197 H 22.048028688205516 34.63898783327291 21.785918304507806 H 0.0 **** 0.41
4198 O 43.57580513511526 24.616777551511976 12.178398959568382 O 0.0 **** -0.82
4199 H 43.98787324614592 23.84515153000031 12.712479607012103 H 0.0 **** 0.41
4200 H 43.66880907089409 24.333747586889277 11.213883266465963 H 0.0 **** 0.41
4201 O 1.844301186723043 31.461092782905922 24.989880554311018 O 0.0 **** -0.82
4202 H 2.572608772676096 31.849992877466168 24.378887984806603 H 0.0 **** 0.41
4203 H 1.4543325251695232 30.71304124013332 24.41062146615832 H 0.0 **** 0.41
4204 O 8.317180189205096 23.990101971234168 31.068802085988608 O 0.0 **** -0.82
4205 H 7.990495190886255 24.89003720122369 31.45389207892292 H 0.0 **** 0.41
4206 H 9.11294357769274 24.270906311151734 30.5767625619202 H 0.0 **** 0.41
4207 O 42.958427586907455 32.13119935958915 24.529341565763147 O 0.0 **** -0.82
4208 H 42.68631972104632 33.066019605311695 24.30983787601088 H 0.0 **** 0.41
4209 H 42.208956171807294 31.47661657500322 24.47242693145963 H 0.0 **** 0.41
4210 O 32.80556225993163 13.237630700236775 37.40505255741617 O 0.0 **** -0.82
4211 H 33.55904074869707 13.251767719718295 38.05515575392832 H 0.0 **** 0.41
4212 H 32.11069723341972 12.53464683944074 37.693330596021816 H 0.0 **** 0.41
4213 O 8.102047631524039 1.043709973371591 35.01029675478931 O 0.0 **** -0.82
4214 H 8.368888954082388 0.2105781528120616 35.508806788449476 H 0.0 **** 0.41
4215 H 8.897836352338006 1.64064431715952 35.12070627396236 H 0.0 **** 0.41
4216 O 24.018077828851386 33.288892339595705 44.0269705047772 O 0.0 **** -0.82
4217 H 24.42892201866695 32.4069644883262 44.38545122145251 H 0.0 **** 0.41
4218 H 24.756210842013388 33.93672283961315 43.88147523190642 H 0.0 **** 0.41
4219 O 25.354340243024584 41.72252318363474 43.27165629242845 O 0.0 **** -0.82
4220 H 25.721740554732 42.07960997043699 42.37834107439416 H 0.0 **** 0.41
4221 H 24.638082761282075 42.45743357751482 43.59807424274782 H 0.0 **** 0.41
4222 O 21.61077680278517 0.6957911215315041 2.90249167973235 O 0.0 **** -0.82
4223 H 21.115682305535614 0.1943178193603607 2.1451125469772734 H 0.0 **** 0.41
4224 H 20.868419145093654 1.3065241426665348 3.2218257307265077 H 0.0 **** 0.41
4225 O 20.61853747867763 10.625249428243325 32.67718922465648 O 0.0 **** -0.82
4226 H 20.262579805036776 10.63621572855772 33.61778646703904 H 0.0 **** 0.41
4227 H 20.1090747565996 11.247793839705864 32.17232355131815 H 0.0 **** 0.41
4228 O 44.75838963994273 10.778790823900273 17.53137826369943 O 0.0 **** -0.82
4229 H 45.37708233668374 10.42907862470122 18.210671991944977 H 0.0 **** 0.41
4230 H 44.485847813554045 11.686176274595283 17.842938146325594 H 0.0 **** 0.41
4231 O 47.73333319577733 0.5776416887781499 43.760694521417136 O 0.0 **** -0.82
4232 H 47.50717880786859 0.9116061862977031 44.726454618014806 H 0.0 **** 0.41
4233 H 46.81536536250861 0.26829504210882693 43.523801587697854 H 0.0 **** 0.41
4234 O 44.64652278446047 0.2824341182993777 46.43737913264462 O 0.0 **** -0.82
4235 H 45.486450623632784 0.08260397586879265 46.976218730155175 H 0.0 **** 0.41
4236 H 44.8202670402487 -0.03759746967647004 45.51828792091076 H 0.0 **** 0.41
4237 O 12.35535132876085 23.316262853715134 26.176548875908324 O 0.0 **** -0.82
4238 H 12.510901232876758 22.42048374294348 26.681237532093498 H 0.0 **** 0.41
4239 H 11.987129044406137 23.05341894294685 25.286569912368044 H 0.0 **** 0.41
4240 O 40.34973525990941 34.42676345499075 29.055371183781514 O 0.0 **** -0.82
4241 H 40.811747149636226 33.62571696535122 29.50558927840429 H 0.0 **** 0.41
4242 H 41.009650899832 34.59870198548172 28.23619514947767 H 0.0 **** 0.41
4243 O 31.276646567684896 26.355383404690745 32.435761869674344 O 0.0 **** -0.82
4244 H 30.526327914918532 26.295491113364196 33.06919349960375 H 0.0 **** 0.41
4245 H 30.938238912261767 27.18304093462761 31.957433966589612 H 0.0 **** 0.41
4246 O 22.239920574391526 0.08147837058693597 31.41782714157264 O 0.0 **** -0.82
4247 H 22.647439481407208 0.6871547675337837 30.77640904717003 H 0.0 **** 0.41
4248 H 21.231781099153167 0.16774255791115422 31.226689086199112 H 0.0 **** 0.41
4249 O 19.58719978703529 0.6184646754607073 31.213157825456218 O 0.0 **** -0.82
4250 H 18.647883590394677 0.7781762729802324 31.620876254908293 H 0.0 **** 0.41
4251 H 19.497197775939995 0.12612196554540844 30.311908128961452 H 0.0 **** 0.41
4252 O 43.85343375261251 34.64543754496037 40.89636272482957 O 0.0 **** -0.82
4253 H 43.43829032678532 35.063945248826215 41.79101396956462 H 0.0 **** 0.41
4254 H 44.42711059618322 35.42955168021658 40.50053473122823 H 0.0 **** 0.41
4255 O 4.888563145884158 17.774182163032705 38.032529887030854 O 0.0 **** -0.82
4256 H 4.682574311995939 18.72345002675978 37.94969121224903 H 0.0 **** 0.41
4257 H 4.386585919939914 17.493714772074192 38.819163668379126 H 0.0 **** 0.41
4258 O 39.212147832929766 46.27615210614148 3.1316669912165622 O 0.0 **** -0.82
4259 H 38.57041544850592 47.03267721290713 3.318146785474198 H 0.0 **** 0.41
4260 H 39.33258982904641 46.37522595456034 2.161785511324851 H 0.0 **** 0.41
4261 O 19.467748001523997 5.165596129903519 21.712024829703093 O 0.0 **** -0.82
4262 H 19.650622544542237 4.118644875677241 21.696442329578844 H 0.0 **** 0.41
4263 H 20.013829411882384 5.572849812260609 21.004306149720932 H 0.0 **** 0.41
4264 O 24.561594552026072 8.18776181923068 7.060062272369143 O 0.0 **** -0.82
4265 H 23.67950381221735 8.255059988822453 7.495334513361283 H 0.0 **** 0.41
4266 H 24.41774634642484 7.95140281436008 6.086890801903561 H 0.0 **** 0.41
4267 O 32.376857106163236 47.20595233557861 9.602106013729795 O 0.0 **** -0.82
4268 H 33.34599324838733 47.31544344455257 9.274724233085642 H 0.0 **** 0.41
4269 H 32.265708693392384 47.94359146231713 10.311489513133523 H 0.0 **** 0.41
4270 O 12.851126051410066 37.73638300022011 47.775557789899935 O 0.0 **** -0.82
4271 H 12.256425075991919 37.99526534752491 48.56354898577925 H 0.0 **** 0.41
4272 H 13.773358324786173 37.79625338072604 48.23380864491064 H 0.0 **** 0.41
4273 O 7.290703123810204 42.03757056357868 38.70384728255206 O 0.0 **** -0.82
4274 H 7.264571882386484 42.91297162175634 39.257598325049614 H 0.0 **** 0.41
4275 H 7.9627275065383145 42.248284653042106 37.965560536293566 H 0.0 **** 0.41
4276 O 9.137091093058952 38.85240884727647 41.90442468194786 O 0.0 **** -0.82
4277 H 10.063161325322168 39.367780377763694 41.78069246459373 H 0.0 **** 0.41
4278 H 9.26551028574719 38.08290504238658 42.531762203102915 H 0.0 **** 0.41
4279 O 17.175879520081835 21.697504328562797 44.78963920751626 O 0.0 **** -0.82
4280 H 17.398408149223442 22.011891205964638 43.86039688961252 H 0.0 **** 0.41
4281 H 17.528471543338526 22.470218526416367 45.371029166416534 H 0.0 **** 0.41
4282 O 36.800803817335584 33.332501820786085 9.589512924777955 O 0.0 **** -0.82
4283 H 37.28846531742735 32.531207999634496 9.219506461830433 H 0.0 **** 0.41
4284 H 37.15127858334813 33.41277842401362 10.507426785863023 H 0.0 **** 0.41
4285 O 33.874088807299465 5.116264417737441 33.65217469652507 O 0.0 **** -0.82
4286 H 33.8367832235307 5.822688987251127 34.35321726535993 H 0.0 **** 0.41
4287 H 34.66285814333277 5.307180941371529 33.13911916988136 H 0.0 **** 0.41
4288 O 22.26224906634937 36.26776324226947 36.371205253652434 O 0.0 **** -0.82
4289 H 23.03817803745061 36.744859501070586 35.95397482422575 H 0.0 **** 0.41
4290 H 21.45599997913289 36.72670714267746 35.92152107531393 H 0.0 **** 0.41
4291 O 49.61990044176828 47.822355806866994 30.603684046103314 O 0.0 **** -0.82
4292 H 50.46966328367557 48.180816406361856 30.220957798861434 H 0.0 **** 0.41
4293 H 49.67217082012648 48.09192288998692 31.61273684506209 H 0.0 **** 0.41
4294 O 42.67750181610381 41.11224508712902 49.63350713584468 O 0.0 **** -0.82
4295 H 43.26343014075119 40.30894363130075 49.523394088246064 H 0.0 **** 0.41
4296 H 43.16043887982375 41.554310411487855 50.43382257589172 H 0.0 **** 0.41
4297 O 44.572423426845255 29.557550597316574 4.830427000046916 O 0.0 **** -0.82
4298 H 45.26930260637788 29.008809577044662 4.336468019444039 H 0.0 **** 0.41
4299 H 44.866232706010514 29.718184326700047 5.769660416588104 H 0.0 **** 0.41
4300 O 16.409846298643878 9.623024813371877 43.74248981939264 O 0.0 **** -0.82
4301 H 15.65181061218149 10.203812613231001 43.41663327635926 H 0.0 **** 0.41
4302 H 17.20947623141871 10.004139551363735 43.24353059512631 H 0.0 **** 0.41
4303 O 5.1489753262554405 7.335783318151303 25.314166581828147 O 0.0 **** -0.82
4304 H 6.092562995157249 6.839525514753284 25.351786566189077 H 0.0 **** 0.41
4305 H 4.5836176200962395 6.831768419527554 26.019274678075377 H 0.0 **** 0.41
4306 O 34.21611603758392 32.1115348924984 42.29056950695091 O 0.0 **** -0.82
4307 H 34.27991817540043 32.692768066518354 41.43602434265375 H 0.0 **** 0.41
4308 H 34.037848095764566 31.192810840845993 41.93082264426237 H 0.0 **** 0.41
4309 O 42.40225002740917 8.531368750235245 6.626259362095161 O 0.0 **** -0.82
4310 H 41.99925027141761 9.423155142243317 7.018599297289814 H 0.0 **** 0.41
4311 H 43.39927084192781 8.761694581840025 6.494759348087698 H 0.0 **** 0.41
4312 O 23.567736212972875 8.750028589598493 40.20130214635819 O 0.0 **** -0.82
4313 H 23.603281763620117 8.273390419271578 41.11214990268053 H 0.0 **** 0.41
4314 H 22.79646099623517 9.3887495097255 40.12633094663589 H 0.0 **** 0.41
4315 O 12.015106241940359 30.310264801487474 40.54683941570712 O 0.0 **** -0.82
4316 H 12.874329512000422 30.05994698633374 40.94155639854044 H 0.0 **** 0.41
4317 H 11.658126963051672 29.415154676441595 40.20326851469076 H 0.0 **** 0.41
4318 O 42.620704726088675 43.16118509803948 15.279874173382662 O 0.0 **** -0.82
4319 H 42.941910945191296 43.677717273114936 14.463773062535289 H 0.0 **** 0.41
4320 H 41.853238485272435 43.707890564758074 15.686985154933982 H 0.0 **** 0.41
4321 O 13.008404938907791 19.117185479924903 31.428393655219185 O 0.0 **** -0.82
4322 H 12.825955881297496 18.149351255969766 31.73173432386679 H 0.0 **** 0.41
4323 H 12.293069338789582 19.253768934817383 30.67827051082122 H 0.0 **** 0.41
4324 O 34.051773208735156 37.122833786518115 30.925881924640837 O 0.0 **** -0.82
4325 H 34.79362937339246 36.68580938852072 31.483101994135886 H 0.0 **** 0.41
4326 H 33.316883115772896 36.460919101914136 31.19875419817051 H 0.0 **** 0.41
4327 O 27.092487198354533 26.90962786554878 17.87780563913285 O 0.0 **** -0.82
4328 H 26.642454831401334 26.70516863058469 17.06500984829464 H 0.0 **** 0.41
4329 H 26.37888213525377 27.564991301066478 18.243188935895706 H 0.0 **** 0.41
4330 O 39.83133254995034 5.596504325536365 33.36875327324913 O 0.0 **** -0.82
4331 H 39.223275147148904 6.336666641205596 33.71043251111911 H 0.0 **** 0.41
4332 H 39.14940550037971 4.891682551859745 33.21189236066268 H 0.0 **** 0.41
4333 O 45.03351367872575 3.338458498004471 33.28656244102751 O 0.0 **** -0.82
4334 H 45.44732417511514 2.52349615188883 33.78179886322975 H 0.0 **** 0.41
4335 H 44.04797952538385 3.3040132070609216 33.42820388127711 H 0.0 **** 0.41
4336 O 4.06212802175344 35.29891474736778 16.103343852892458 O 0.0 **** -0.82
4337 H 3.2828099494792995 35.90554617799777 16.303940389807792 H 0.0 **** 0.41
4338 H 3.8484067604022774 34.36857523862251 16.375737313750783 H 0.0 **** 0.41
4339 O 28.336349129448585 16.0226702039382 44.8022172874819 O 0.0 **** -0.82
4340 H 29.087897310260782 15.351272570265374 44.57995080723068 H 0.0 **** 0.41
4341 H 27.767625606451315 16.21740875887291 44.03385876274003 H 0.0 **** 0.41
4342 O 0.5646786461387546 0.9606213190770939 43.04084743210582 O 0.0 **** -0.82
4343 H 0.9402376735198441 1.559426902365943 43.718117819971006 H 0.0 **** 0.41
4344 H -0.3707118669189029 0.8739800824387949 43.36815320970422 H 0.0 **** 0.41
4345 O 0.8839839385213132 43.919635298828815 26.78460083553152 O 0.0 **** -0.82
4346 H 0.5117547788015215 43.39134402929389 26.05442446123567 H 0.0 **** 0.41
4347 H 1.7453886934631602 43.37921994922081 27.060447005011014 H 0.0 **** 0.41
4348 O 29.668556456652652 45.3579349683646 17.8522865256991 O 0.0 **** -0.82
4349 H 29.939491394521482 44.51503187371409 17.439259556634937 H 0.0 **** 0.41
4350 H 29.65462876788058 46.13584235729571 17.18948246502744 H 0.0 **** 0.41
4351 O 40.70418395070383 47.23821077999571 20.31581221788261 O 0.0 **** -0.82
4352 H 41.56056769950709 47.5921887013955 20.00834578235249 H 0.0 **** 0.41
4353 H 40.538326430575495 47.667975511285704 21.226423518258326 H 0.0 **** 0.41
4354 O 33.8578908223336 40.22410594126026 29.115123872266224 O 0.0 **** -0.82
4355 H 32.86875373567616 40.420949865065474 28.96392702634114 H 0.0 **** 0.41
4356 H 33.950831530514016 39.91420275635321 30.05175651114661 H 0.0 **** 0.41
4357 O 49.493652537033334 49.379934350355356 17.520673023842434 O 0.0 **** -0.82
4358 H 50.247075959434255 49.982186468504025 17.793424815288645 H 0.0 **** 0.41
4359 H 49.44539502573615 49.568536465061214 16.529068762150615 H 0.0 **** 0.41
4360 O 8.185801513073514 2.5005277730805413 16.75351275391013 O 0.0 **** -0.82
4361 H 8.27334520271231 3.2537547144790593 17.432868523230013 H 0.0 **** 0.41
4362 H 9.154751219492148 2.0421949929281418 16.71527327786572 H 0.0 **** 0.41
4363 O 26.90656197633298 11.596591466547594 12.518706696024978 O 0.0 **** -0.82
4364 H 27.607752662089638 10.932370842948615 12.841764955473664 H 0.0 **** 0.41
4365 H 26.591726523219208 12.088941467298255 13.4211520484386 H 0.0 **** 0.41
4366 O 1.9153777410907993 48.92972990828462 32.56064039082051 O 0.0 **** -0.82
4367 H 1.3936684324114024 49.40545865708942 33.31665861337096 H 0.0 **** 0.41
4368 H 2.4802542315993907 48.21469321372635 32.98651727798767 H 0.0 **** 0.41
4369 O 22.06968105858151 6.306998238387081 15.417357662775592 O 0.0 **** -0.82
4370 H 21.29084534720363 6.787982940702058 14.987933221326331 H 0.0 **** 0.41
4371 H 22.720386654754794 6.270484132068972 14.656095444518364 H 0.0 **** 0.41
4372 O 37.89419820405687 17.216165722430954 48.08997161604003 O 0.0 **** -0.82
4373 H 38.78771816273986 17.120179790284734 47.57659687448763 H 0.0 **** 0.41
4374 H 38.069819667143484 17.297004911920578 49.071210522645494 H 0.0 **** 0.41
4375 O 25.05316631566923 0.5341442497436049 27.71962778098035 O 0.0 **** -0.82
4376 H 25.26887219863039 1.5613408320989564 27.691431091765164 H 0.0 **** 0.41
4377 H 25.476951006346383 0.1513893706149858 26.90005966880077 H 0.0 **** 0.41
4378 O 41.43594661768884 14.588772084519004 14.306604926455678 O 0.0 **** -0.82
4379 H 42.26122714068809 15.176489656190189 14.253163829517325 H 0.0 **** 0.41
4380 H 41.19985821788449 14.011086849059394 13.496532799373252 H 0.0 **** 0.41
4381 O 40.59734478096186 21.992952341205175 29.74413845274054 O 0.0 **** -0.82
4382 H 41.4122376586641 21.43426040564834 29.42535920640388 H 0.0 **** 0.41
4383 H 40.50569898478799 22.765931433588875 29.11927137275991 H 0.0 **** 0.41
4384 O 30.686742950023017 0.23964684844300876 47.6924987985882 O 0.0 **** -0.82
4385 H 30.425746754545074 -0.5629977418723655 47.148663683560514 H 0.0 **** 0.41
4386 H 30.07514054901668 0.9541887879003781 47.39352854722468 H 0.0 **** 0.41
4387 O 13.432174968845736 10.852751466727216 45.231250693940964 O 0.0 **** -0.82
4388 H 14.135801090742047 11.583718878380726 44.98220154888585 H 0.0 **** 0.41
4389 H 13.783426372392096 10.341924278914398 46.05009733503136 H 0.0 **** 0.41
4390 O 3.6716629431890464 40.547913772714196 7.81087051773285 O 0.0 **** -0.82
4391 H 4.1397677346340815 40.712147594655335 6.916979103518946 H 0.0 **** 0.41
4392 H 4.3207966531545035 40.13480616923732 8.492929252564236 H 0.0 **** 0.41
4393 O 37.56698033038392 7.420980038709786 14.059881342855604 O 0.0 **** -0.82
4394 H 37.72276009578073 7.841732450843729 14.975253651419138 H 0.0 **** 0.41
4395 H 37.85779116501922 6.492738759896113 14.060092619050778 H 0.0 **** 0.41
4396 O 13.157761438735333 7.657003831678686 34.86078977085132 O 0.0 **** -0.82
4397 H 13.520518259467522 7.207575258967729 34.01157688870206 H 0.0 **** 0.41
4398 H 13.028286854606446 6.9452549194001705 35.56626816468654 H 0.0 **** 0.41
4399 O 2.259483920264882 10.30815792341329 8.596701976401953 O 0.0 **** -0.82
4400 H 1.904478100082985 10.762351948250796 9.582030298420854 H 0.0 **** 0.41
4401 H 1.5443196292289083 9.673430582014518 8.380938968190614 H 0.0 **** 0.41
4402 O 15.320672835310802 22.10771946251218 12.96385813683883 O 0.0 **** -0.82
4403 H 15.19821421079208 21.604561641048875 12.073039071584887 H 0.0 **** 0.41
4404 H 15.962588089255881 21.52457384958315 13.519512082230122 H 0.0 **** 0.41
4405 O 37.060348114255035 16.766543425815783 6.020640135023888 O 0.0 **** -0.82
4406 H 36.2970470299075 16.18257321942994 6.338007047580443 H 0.0 **** 0.41
4407 H 36.64141826186321 17.68476549219355 5.908247020058976 H 0.0 **** 0.41
4408 O 21.125390126021117 21.77460780051443 39.4448757339142 O 0.0 **** -0.82
4409 H 22.14227752097088 21.63831884626559 39.468095335533235 H 0.0 **** 0.41
4410 H 20.673424001158708 21.03215112951311 38.88068967692692 H 0.0 **** 0.41
4411 O 29.086992966543086 14.90313005195214 19.97700303027122 O 0.0 **** -0.82
4412 H 29.623376197007534 15.701327839249922 19.734735757009943 H 0.0 **** 0.41
4413 H 28.630961159389273 14.603930274754276 19.08501236109204 H 0.0 **** 0.41
4414 O 16.345149005968374 23.94765349567164 15.749645106958573 O 0.0 **** -0.82
4415 H 16.278870392499787 24.963374726631518 15.773557179585994 H 0.0 **** 0.41
4416 H 16.90764754928329 23.774668574354973 14.909936640178055 H 0.0 **** 0.41
4417 O 21.94678242467171 4.3123576131127 37.49944375579206 O 0.0 **** -0.82
4418 H 22.23812447647597 4.7423142950295025 38.399210052218024 H 0.0 **** 0.41
4419 H 21.189042313393614 3.8246973922837646 38.002502988902165 H 0.0 **** 0.41
4420 O 12.951308537787279 3.924530123712703 24.72565750404695 O 0.0 **** -0.82
4421 H 12.301398718996877 3.4468359244609656 25.37434971677797 H 0.0 **** 0.41
4422 H 12.43656393770506 4.314045397667329 23.936171439166582 H 0.0 **** 0.41
4423 O 13.456726541978021 15.028491685084205 22.72349441649474 O 0.0 **** -0.82
4424 H 13.85969520693073 15.356690937996305 21.845643701941647 H 0.0 **** 0.41
4425 H 13.260647768489925 15.851208898504723 23.21593281407134 H 0.0 **** 0.41
4426 O 20.231065597922065 47.150120287992486 44.321650149635424 O 0.0 **** -0.82
4427 H 20.70965497909304 46.73386958597635 43.530121414234564 H 0.0 **** 0.41
4428 H 20.971135250857323 47.81768162393523 44.689224626869475 H 0.0 **** 0.41
4429 O 2.003905928014052 39.37706453020278 37.86539712438424 O 0.0 **** -0.82
4430 H 0.9914051492411915 39.258626951576574 37.98393340565809 H 0.0 **** 0.41
4431 H 2.292302023071584 38.43233621614358 37.45236105351647 H 0.0 **** 0.41
4432 O 26.39375582873482 14.0707065961561 23.257297644150935 O 0.0 **** -0.82
4433 H 25.767272778859912 13.71133407278677 22.565395691906573 H 0.0 **** 0.41
4434 H 26.67772634004 15.032811455764033 22.967059767322674 H 0.0 **** 0.41
4435 O 0.9851285219301213 33.61843362381161 48.0881555724642 O 0.0 **** -0.82
4436 H 0.5191525140242604 33.79693936552845 47.23510463212541 H 0.0 **** 0.41
4437 H 1.671045193678742 34.410823778445085 48.15416077196895 H 0.0 **** 0.41
4438 O 31.573024602246218 38.49215228811358 1.5441603106632968 O 0.0 **** -0.82
4439 H 31.163184595380923 39.229804395763246 0.9401268563418871 H 0.0 **** 0.41
4440 H 31.927409313462178 38.99683230784791 2.354519168141844 H 0.0 **** 0.41
4441 O 11.003037032196685 49.75892964883453 39.50420874587954 O 0.0 **** -0.82
4442 H 10.610622108905156 49.80512667225216 40.41509399893432 H 0.0 **** 0.41
4443 H 10.731186333361165 48.90796714028851 39.118082602521945 H 0.0 **** 0.41
4444 O 6.8217556796368015 46.395060558921855 3.9841281681698457 O 0.0 **** -0.82
4445 H 6.708299224709727 46.413696539083126 2.9482998508657303 H 0.0 **** 0.41
4446 H 6.569794483793366 47.352464203097604 4.312922361349128 H 0.0 **** 0.41
4447 O 31.743071889287986 21.2376305577735 31.677705740377945 O 0.0 **** -0.82
4448 H 31.72341964595061 22.19971638887055 31.414236626663943 H 0.0 **** 0.41
4449 H 32.54337880329011 21.035038295502716 32.24979793638443 H 0.0 **** 0.41
4450 O 49.79541779704259 46.54276902651498 39.259364771908785 O 0.0 **** -0.82
4451 H 49.080673174947336 46.77000007876072 39.95282845748461 H 0.0 **** 0.41
4452 H 49.92066276928389 47.377240488727814 38.73022642609109 H 0.0 **** 0.41
4453 O 7.311927593193134 36.32646953777362 44.42625328244966 O 0.0 **** -0.82
4454 H 6.995980670816357 35.53726710002363 44.99757055371353 H 0.0 **** 0.41
4455 H 6.576180424982653 36.49953321432991 43.740457813898836 H 0.0 **** 0.41
4456 O 18.4470452940156 1.1825590339218055 15.513798639000587 O 0.0 **** -0.82
4457 H 19.06060122566284 0.727654526092345 16.133039433998107 H 0.0 **** 0.41
4458 H 18.100275142531054 1.989248115934279 16.000489604032925 H 0.0 **** 0.41
4459 O 24.003270825600776 4.061622802154318 47.39889160575726 O 0.0 **** -0.82
4460 H 23.547602262730578 4.966792832966291 47.37416341108345 H 0.0 **** 0.41
4461 H 24.73802154464573 4.111788776727934 48.12550950126111 H 0.0 **** 0.41
4462 O 30.344826606926866 3.3169703296556183 2.1359004279160647 O 0.0 **** -0.82
4463 H 30.731989987743194 4.2663645734561495 1.941791192612543 H 0.0 **** 0.41
4464 H 30.98918925037316 2.7221882712286853 1.5472891583563506 H 0.0 **** 0.41
4465 O 0.8002859745043054 39.81727868676354 3.0619072537723464 O 0.0 **** -0.82
4466 H 0.7343592148489222 40.386020748107725 2.2484086033244264 H 0.0 **** 0.41
4467 H 0.6263334767321496 40.38741868712079 3.917565648674972 H 0.0 **** 0.41
4468 O 9.775972134946976 35.961631682793744 25.217572693769238 O 0.0 **** -0.82
4469 H 9.043672551599016 36.56520289496643 24.864354322199784 H 0.0 **** 0.41
4470 H 9.2886649123976 35.08599701367577 25.294559390300975 H 0.0 **** 0.41
4471 O 21.43663835513875 40.515997829536545 13.085210795748807 O 0.0 **** -0.82
4472 H 21.19598416284569 39.94176492884554 12.292562714772195 H 0.0 **** 0.41
4473 H 20.88317955248424 41.346819220293625 12.826376814250835 H 0.0 **** 0.41
4474 O 18.230352882126425 34.73918552878595 42.413989679803926 O 0.0 **** -0.82
4475 H 17.979453828665953 34.81350731241427 41.45719048748372 H 0.0 **** 0.41
4476 H 18.825661618483153 35.52072496909403 42.73215906982835 H 0.0 **** 0.41
4477 O 19.671726365578408 1.0184865677965718 36.25280041799363 O 0.0 **** -0.82
4478 H 19.474175416397628 2.0108417770776583 36.00127913961753 H 0.0 **** 0.41
4479 H 19.47652918750522 0.45571564519926255 35.480203256429036 H 0.0 **** 0.41
4480 O 6.235073468656182 20.903308316749218 4.913940047135007 O 0.0 **** -0.82
4481 H 5.4110657451847715 20.32384397556484 5.149780938448856 H 0.0 **** 0.41
4482 H 6.053969841774261 21.360913665580455 4.023041759519842 H 0.0 **** 0.41
4483 O 49.113808188617796 28.615046407795656 16.96250054464056 O 0.0 **** -0.82
4484 H 48.779316356653126 27.893902814027992 16.340833876429453 H 0.0 **** 0.41
4485 H 49.840256286592535 28.157552422891044 17.50789499727408 H 0.0 **** 0.41
4486 O 47.649769644404046 27.008537875462938 31.669372411307716 O 0.0 **** -0.82
4487 H 48.486989245039624 26.898643942304666 31.017883172305567 H 0.0 **** 0.41
4488 H 46.90971916106743 27.44425525741816 31.13506471623051 H 0.0 **** 0.41
4489 O 24.623860196032425 35.99285714263393 41.85906927325568 O 0.0 **** -0.82
4490 H 24.668390128977308 35.36598527577645 41.0193147746251 H 0.0 **** 0.41
4491 H 23.601395602970513 36.15153249322949 41.86492563456779 H 0.0 **** 0.41
4492 O 6.593009023608858 30.247152544863283 18.684930737152513 O 0.0 **** -0.82
4493 H 5.968158639828139 29.60197806846728 19.05180698233852 H 0.0 **** 0.41
4494 H 6.841217925218632 30.635349005493303 19.595831831976227 H 0.0 **** 0.41
4495 O 31.452821640540108 27.825003926896155 4.598235214503284 O 0.0 **** -0.82
4496 H 31.71724509544278 26.85054785579619 4.651333332687761 H 0.0 **** 0.41
4497 H 31.04843365602554 28.11125601128099 5.510603035084959 H 0.0 **** 0.41
4498 O 1.2921120367835228 23.509855123406254 3.0403625183099763 O 0.0 **** -0.82
4499 H 1.8892360081515083 23.597545646616577 3.873568177250988 H 0.0 **** 0.41
4500 H 0.41415091547002914 23.130292622393636 3.496673732948068 H 0.0 **** 0.41
4501 O 26.2239627150856 37.32270006397251 2.2028530371027806 O 0.0 **** -0.82
4502 H 26.51610387639266 36.716330057895924 2.939321587746451 H 0.0 **** 0.41
4503 H 25.216576328295094 37.15589161867437 2.0844752082000717 H 0.0 **** 0.41
4504 O 38.44030975719452 48.848525395728515 21.81121528855415 O 0.0 **** -0.82
4505 H 37.645694220741284 49.16644547272402 22.416518595856832 H 0.0 **** 0.41
4506 H 38.85060526052667 49.70033361653296 21.343736104033642 H 0.0 **** 0.41
4507 O 23.926012384891255 48.88672075636761 19.60025722307764 O 0.0 **** -0.82
4508 H 23.692219860221414 49.334276226048445 20.49632853538442 H 0.0 **** 0.41
4509 H 23.038560368817826 48.483691186076086 19.38467845068504 H 0.0 **** 0.41
4510 O 13.152899266798848 7.872971327074805 40.16017714834037 O 0.0 **** -0.82
4511 H 14.141377735582012 7.754924534420917 40.32203566565588 H 0.0 **** 0.41
4512 H 12.871206165462603 6.893252745904455 40.13973693049458 H 0.0 **** 0.41
4513 O 10.082935878592982 5.26313273335559 22.516307223333826 O 0.0 **** -0.82
4514 H 9.86473655143174 4.346176956114547 22.90470844923744 H 0.0 **** 0.41
4515 H 10.896140630789509 5.19657833752666 21.988241269657593 H 0.0 **** 0.41
4516 O 10.177210069926318 0.792605363502517 47.038121465847134 O 0.0 **** -0.82
4517 H 10.04391330657981 1.7588145798365886 46.953338680921554 H 0.0 **** 0.41
4518 H 10.651895330113739 0.6024297588094711 46.156701125815644 H 0.0 **** 0.41
4519 O 48.86129991303338 2.2743888757313115 22.875154807090176 O 0.0 **** -0.82
4520 H 49.36393195778901 1.50683746085231 22.387505270770816 H 0.0 **** 0.41
4521 H 48.78285837325948 3.001050041604124 22.14927171600574 H 0.0 **** 0.41
4522 O 17.468426453870464 31.28498175053894 46.14713599661963 O 0.0 **** -0.82
4523 H 17.47144735539908 32.303944392213765 45.91112497932867 H 0.0 **** 0.41
4524 H 18.488180212174164 31.113998888346558 46.22586908961042 H 0.0 **** 0.41
4525 O 13.992592507278957 41.90139076247628 11.473744621970575 O 0.0 **** -0.82
4526 H 14.889897337491398 42.19056999801323 11.102555625786103 H 0.0 **** 0.41
4527 H 13.789345887076195 41.08604173195325 10.938673475169665 H 0.0 **** 0.41
4528 O 30.507330059307616 6.178343275888874 31.082434658679148 O 0.0 **** -0.82
4529 H 30.905431591682746 5.945679449386874 31.993130984024244 H 0.0 **** 0.41
4530 H 29.77229397381128 5.580455198496327 30.954979919864762 H 0.0 **** 0.41
4531 O 7.4612415410252835 24.761224148303512 34.26728528275817 O 0.0 **** -0.82
4532 H 7.363959982337751 25.311441361291728 33.418365009679526 H 0.0 **** 0.41
4533 H 7.025398574583917 25.333585088950883 34.98665212115101 H 0.0 **** 0.41
4534 O 45.60258299356836 8.035176106523785 49.81640394039006 O 0.0 **** -0.82
4535 H 45.88497743055177 7.7178188628708 48.91341302820575 H 0.0 **** 0.41
4536 H 46.47455772141829 8.00817335487259 50.43118500131978 H 0.0 **** 0.41
4537 O 38.316256414578554 9.875475832134967 33.24466731193487 O 0.0 **** -0.82
4538 H 38.7484562554232 10.389828792979948 32.45181409043156 H 0.0 **** 0.41
4539 H 38.53614347453318 10.480387559565955 34.04952109850953 H 0.0 **** 0.41
4540 O 11.868182811974911 12.795610894164561 20.711429589776742 O 0.0 **** -0.82
4541 H 11.138568911937519 13.183304499568376 21.248933620100786 H 0.0 **** 0.41
4542 H 11.648185641034864 13.071928626381633 19.72161498051868 H 0.0 **** 0.41
4543 O 11.50226853554971 45.80151458598762 12.152069930513616 O 0.0 **** -0.82
4544 H 12.142315581965043 46.031046132614954 11.411776905080355 H 0.0 **** 0.41
4545 H 11.964179203847891 44.97156897342772 12.592369787195244 H 0.0 **** 0.41
4546 O 30.963993219926923 2.8329253815200133 23.2436399815784 O 0.0 **** -0.82
4547 H 31.233079916233148 2.322341651757796 22.367301493708915 H 0.0 **** 0.41
4548 H 30.032133232049457 3.207527168044571 23.05440347685667 H 0.0 **** 0.41
4549 O 6.434916988302859 25.021981216709595 38.72452368761082 O 0.0 **** -0.82
4550 H 7.433621655582655 24.93775213620593 38.544863493667556 H 0.0 **** 0.41
4551 H 6.2384723040364065 25.098167941937735 39.747890980805074 H 0.0 **** 0.41
4552 O 8.324251292741671 27.930810046127863 36.736181479605534 O 0.0 **** -0.82
4553 H 7.5516315003213705 27.629747478281274 36.07410309634638 H 0.0 **** 0.41
4554 H 9.049121593845477 28.308692579867497 36.12106258750177 H 0.0 **** 0.41
4555 O 47.40741376132752 23.998782230483002 33.208828659506004 O 0.0 **** -0.82
4556 H 47.555030042775826 23.033732220483103 33.438892928477784 H 0.0 **** 0.41
4557 H 46.84334826002555 24.465253388425026 33.942688157602426 H 0.0 **** 0.41
4558 O 22.108297823737526 49.56437810042923 34.019599119745365 O 0.0 **** -0.82
4559 H 22.195169303416083 49.66004291493701 33.02311939699239 H 0.0 **** 0.41
4560 H 22.601099924114347 50.32722694541695 34.42019724140095 H 0.0 **** 0.41
4561 O 5.856574087572881 28.787492832984917 9.33200744147598 O 0.0 **** -0.82
4562 H 6.643263112271754 28.85643864210838 8.664812673047166 H 0.0 **** 0.41
4563 H 5.0929341674384645 28.25835171833974 8.802531640588725 H 0.0 **** 0.41
4564 O 46.70224910870449 38.30745229112048 33.910311611011366 O 0.0 **** -0.82
4565 H 45.95445823897194 38.85148296284511 34.210542624156254 H 0.0 **** 0.41
4566 H 47.26082830424893 39.101270303467324 33.56393694876603 H 0.0 **** 0.41
4567 O 3.6958675976111195 30.45882590469244 0.8967453122582495 O 0.0 **** -0.82
4568 H 3.0062204343101655 29.81678655642559 0.5309478718167036 H 0.0 **** 0.41
4569 H 3.8698930329475516 31.206417233854395 0.2076935837562495 H 0.0 **** 0.41
4570 O 30.06287729417261 1.4145749071236935 38.30153270400567 O 0.0 **** -0.82
4571 H 29.964035523923485 2.4309688696627063 38.25760958377082 H 0.0 **** 0.41
4572 H 29.082409356137575 1.0750339125818442 38.167036163071586 H 0.0 **** 0.41
4573 O 19.668627612863478 33.263614506801844 44.245028937508586 O 0.0 **** -0.82
4574 H 18.987382571098536 33.715634300668476 43.70498814280809 H 0.0 **** 0.41
4575 H 20.490666715841627 33.28475213217989 43.6030320346672 H 0.0 **** 0.41
4576 O 2.237232442792364 9.172320708470767 49.08434005796024 O 0.0 **** -0.82
4577 H 1.8816120395467815 9.361967457538508 50.05009918700796 H 0.0 **** 0.41
4578 H 1.4703832158126997 8.898392027479321 48.59617723358208 H 0.0 **** 0.41
4579 O 47.71035696874324 21.76895655906131 16.038233178621862 O 0.0 **** -0.82
4580 H 47.67192863422694 20.74809389389572 16.007520662522897 H 0.0 **** 0.41
4581 H 48.536205556697645 21.92106847920236 16.575807167294748 H 0.0 **** 0.41
4582 O 46.47985471481859 25.050007352370653 45.42501648667924 O 0.0 **** -0.82
4583 H 45.597280971532655 24.508925425895868 45.433860960434025 H 0.0 **** 0.41
4584 H 46.58217821129064 25.572426535346416 46.308509642558406 H 0.0 **** 0.41
4585 O 10.883474852317203 20.61432149345116 46.680488614520584 O 0.0 **** -0.82
4586 H 11.264949615297231 21.544222303804712 46.84095286989292 H 0.0 **** 0.41
4587 H 10.618539584294123 20.59439191358557 45.66025541602495 H 0.0 **** 0.41
4588 O 5.980543460702182 1.8221477311767567 46.790790557394295 O 0.0 **** -0.82
4589 H 6.855413916910328 1.6175480661041084 47.275309206540726 H 0.0 **** 0.41
4590 H 5.239714121926872 1.812783317992441 47.5341805305431 H 0.0 **** 0.41
4591 O 32.56423270919599 31.950033286105306 27.272495501454376 O 0.0 **** -0.82
4592 H 33.09227643216351 31.226385372144577 27.809411404763186 H 0.0 **** 0.41
4593 H 32.331982201129435 31.436247416804814 26.43546961790932 H 0.0 **** 0.41
4594 O 25.799832818059897 19.059109883863282 22.38382116987402 O 0.0 **** -0.82
4595 H 25.809389982377382 19.36886856812338 23.357335452015725 H 0.0 **** 0.41
4596 H 26.580890391863313 19.510054603503182 21.908855618981782 H 0.0 **** 0.41
4597 O 24.112427605426262 23.66621237571919 38.41734043507465 O 0.0 **** -0.82
4598 H 23.512007056459446 24.5125863052547 38.47582265004794 H 0.0 **** 0.41
4599 H 23.97506128691123 23.24028837427009 37.46600626263549 H 0.0 **** 0.41
4600 O 43.026329952932194 20.9254175386049 21.746351395113596 O 0.0 **** -0.82
4601 H 44.02261870124723 21.080470454957297 21.89204179555968 H 0.0 **** 0.41
4602 H 42.63364702596342 21.839212791256394 21.79461759018041 H 0.0 **** 0.41
4603 O 11.199167310906518 7.790639500624113 0.2461751139707888 O 0.0 **** -0.82
4604 H 10.844881870803604 8.516970856092609 -0.3673483866379996 H 0.0 **** 0.41
4605 H 11.813403393373967 8.359282928226756 0.8391612349720436 H 0.0 **** 0.41
4606 O 37.77141560839737 39.90261098272397 38.63745734429435 O 0.0 **** -0.82
4607 H 37.30430145692891 40.648249160319985 38.17291897032546 H 0.0 **** 0.41
4608 H 38.738962622208994 39.87915758671333 38.33225810319351 H 0.0 **** 0.41
4609 O 9.15805690347956 24.81541515017927 40.224133010082404 O 0.0 **** -0.82
4610 H 8.42363879375062 24.92329707383356 40.869862434078605 H 0.0 **** 0.41
4611 H 9.930440523602568 25.35274562241417 40.54493610673856 H 0.0 **** 0.41
4612 O 20.93183593990869 49.23957175450434 12.607091254628239 O 0.0 **** -0.82
4613 H 21.448157734368348 50.11312103025694 12.710343184306323 H 0.0 **** 0.41
4614 H 20.427347839440475 49.27439768293716 11.692206462167205 H 0.0 **** 0.41
4615 O 38.70131073521074 9.19830478502677 22.917471817673718 O 0.0 **** -0.82
4616 H 37.782863315252385 9.4983675104265 23.18494625613995 H 0.0 **** 0.41
4617 H 39.12892530980408 8.628252822105056 23.661985002293942 H 0.0 **** 0.41
4618 O 6.495637851554093 15.023595431720892 27.673588089740885 O 0.0 **** -0.82
4619 H 5.600777328510922 15.245403253498012 28.151543025482155 H 0.0 **** 0.41
4620 H 6.314586319705455 15.450476453642949 26.75378504421898 H 0.0 **** 0.41
4621 O 48.82977129098847 2.3959768336459017 18.825884367320377 O 0.0 **** -0.82
4622 H 49.720325668359955 2.0624242070813255 18.5324627645969 H 0.0 **** 0.41
4623 H 48.29690510846293 2.5190433143031963 17.955984469701217 H 0.0 **** 0.41
4624 O 11.735145171074045 22.75643039194546 32.15502601981092 O 0.0 **** -0.82
4625 H 11.748249941226462 23.31690960961544 32.974896609431184 H 0.0 **** 0.41
4626 H 11.935095609697342 21.861117146626402 32.55348913013884 H 0.0 **** 0.41
4627 O 33.2234042908501 32.426455194655524 16.639973659733812 O 0.0 **** -0.82
4628 H 33.90308838274582 32.951311038938734 16.1094632270174 H 0.0 **** 0.41
4629 H 33.65820598215068 31.556248821761496 16.901846688737322 H 0.0 **** 0.41
4630 O 22.848824975591725 35.53583297597354 45.36296953894663 O 0.0 **** -0.82
4631 H 23.334264848387306 36.34792598614533 45.04966165128767 H 0.0 **** 0.41
4632 H 23.218503963597783 34.748824129343824 44.78120009429491 H 0.0 **** 0.41
4633 O 18.49038712933198 45.28017736686288 1.8487672798575403 O 0.0 **** -0.82
4634 H 18.73884395299906 45.910632762593984 1.0771691704305653 H 0.0 **** 0.41
4635 H 17.597217263469393 44.95497203380316 1.598660981447651 H 0.0 **** 0.41
4636 O 48.814458301792165 29.433195771095086 44.78392106251272 O 0.0 **** -0.82
4637 H 49.045344102818476 29.30739943706061 45.74515912943255 H 0.0 **** 0.41
4638 H 48.28534880903798 28.63365736424771 44.42089508675211 H 0.0 **** 0.41
4639 O 41.802261875981166 40.79949760300984 42.657395488959615 O 0.0 **** -0.82
4640 H 42.23490531999849 41.37108703508832 43.35866954707305 H 0.0 **** 0.41
4641 H 42.428983399752696 40.10267072449741 42.47782047073418 H 0.0 **** 0.41
4642 O 32.897864458773874 24.75402271388295 36.1055836227435 O 0.0 **** -0.82
4643 H 33.55769098754565 24.81086256578497 35.31340708141216 H 0.0 **** 0.41
4644 H 32.629894314912676 23.77585513671838 36.14897314597318 H 0.0 **** 0.41
4645 O 39.944780422373825 1.9085835215959834 17.026725040171073 O 0.0 **** -0.82
4646 H 39.32319790932097 1.340954426746863 16.408394498472518 H 0.0 **** 0.41
4647 H 40.905365607576336 1.5777029139677614 17.012967885179663 H 0.0 **** 0.41
4648 O 47.821499552269074 5.878035332897422 16.62469107214641 O 0.0 **** -0.82
4649 H 47.03550138417904 6.109813429950845 17.212394293618242 H 0.0 **** 0.41
4650 H 47.55995274575594 6.130569513459887 15.65741698567453 H 0.0 **** 0.41
4651 O 2.368464838770997 9.083127951489615 41.33712080262813 O 0.0 **** -0.82
4652 H 3.3522084253981745 9.458129485646463 41.289680096416696 H 0.0 **** 0.41
4653 H 1.9936936317922331 9.227225941090548 42.31652165520433 H 0.0 **** 0.41
4654 O 37.61510032160644 27.815197677216617 14.391682533000747 O 0.0 **** -0.82
4655 H 37.46649516329125 27.65240867738948 13.38226833740886 H 0.0 **** 0.41
4656 H 38.19781660174784 28.642432378277707 14.492439009964926 H 0.0 **** 0.41
4657 O 48.63148150392181 48.424788410522396 41.95491985664829 O 0.0 **** -0.82
4658 H 48.69503699751249 48.72288610610013 40.95941388913532 H 0.0 **** 0.41
4659 H 48.305350899555236 49.12791500053518 42.62698555330129 H 0.0 **** 0.41
4660 O 7.664279692952782 19.470357079373045 39.686474930198685 O 0.0 **** -0.82
4661 H 7.257401497595136 20.284543999468482 40.11244521560051 H 0.0 **** 0.41
4662 H 7.775456445961575 19.751710090468677 38.661265717508165 H 0.0 **** 0.41
4663 O 10.227177108901245 15.661995298224923 8.966627161569185 O 0.0 **** -0.82
4664 H 10.283603647822183 14.6912959603157 9.278836911458056 H 0.0 **** 0.41
4665 H 9.729151034405142 16.104227774910726 9.762004312873415 H 0.0 **** 0.41
4666 O 44.24100090289303 14.879205803040612 6.939437940271006 O 0.0 **** -0.82
4667 H 43.29396783487272 15.36735731428692 6.914695334685916 H 0.0 **** 0.41
4668 H 44.51067979683566 14.837323828133663 7.909442486358365 H 0.0 **** 0.41
4669 O 27.844887140471943 8.961407723524278 35.314957068328646 O 0.0 **** -0.82
4670 H 28.74779163800278 8.725180022183208 34.859732258456525 H 0.0 **** 0.41
4671 H 27.656679388369316 8.279955879102971 36.004371901420846 H 0.0 **** 0.41
4672 O 22.684735278161213 32.260212808874556 13.305251230998778 O 0.0 **** -0.82
4673 H 21.808778341414797 31.972345916055243 12.991275979580763 H 0.0 **** 0.41
4674 H 22.574816407981032 32.714758703942195 14.214732560580629 H 0.0 **** 0.41
4675 O 35.9892559948274 37.24962285813689 17.884190167896605 O 0.0 **** -0.82
4676 H 35.79423521451276 36.77037897888604 17.004331041540738 H 0.0 **** 0.41
4677 H 35.66697594709929 38.198625499030356 17.600983090406817 H 0.0 **** 0.41
4678 O 12.041297940019767 18.015850885248557 17.22634288065924 O 0.0 **** -0.82
4679 H 11.949233948284684 19.03899089301377 17.13188355854456 H 0.0 **** 0.41
4680 H 12.014798287474658 17.844475387882575 18.206533617554765 H 0.0 **** 0.41
4681 O 14.731739594631751 40.34137475983795 2.3888056471515298 O 0.0 **** -0.82
4682 H 14.478320573111512 40.548799242504664 1.4132759619485733 H 0.0 **** 0.41
4683 H 13.823593936676893 40.435841289354514 2.8238291950522276 H 0.0 **** 0.41
4684 O 10.759297720610718 3.2341475786202105 38.633457315922044 O 0.0 **** -0.82
4685 H 9.88574803512084 3.1238085692280637 39.13976448114318 H 0.0 **** 0.41
4686 H 10.437663092405359 3.35728990953938 37.718516761829065 H 0.0 **** 0.41
4687 O 36.08144226151105 47.22341147264319 33.36889635555509 O 0.0 **** -0.82
4688 H 36.59687159114221 46.583297566354915 34.00491345189253 H 0.0 **** 0.41
4689 H 36.4614044222409 48.13011232827492 33.60149626745124 H 0.0 **** 0.41
4690 O 34.06525847939303 33.120880764917146 11.772578318247158 O 0.0 **** -0.82
4691 H 33.47273519018437 32.441665346377 11.352512104331806 H 0.0 **** 0.41
4692 H 34.88942891479366 32.66675407252129 12.15563312036356 H 0.0 **** 0.41
4693 O 44.39287013615599 16.17770613560142 38.166976101209166 O 0.0 **** -0.82
4694 H 45.24108114959585 16.056218698853563 38.790647302473715 H 0.0 **** 0.41
4695 H 44.56097442313946 17.02671127840697 37.707508423622265 H 0.0 **** 0.41
4696 O 0.5615709289206995 0.6526049818420887 21.331030639556875 O 0.0 **** -0.82
4697 H 0.8752891685285058 -0.09805960473224928 20.73977894269919 H 0.0 **** 0.41
4698 H 1.1537386945872885 1.3775204296283903 20.989535112564795 H 0.0 **** 0.41
4699 O 5.831467338036556 41.655857187595906 26.476474427835146 O 0.0 **** -0.82
4700 H 6.084838334528049 42.29776301308202 25.711696612997333 H 0.0 **** 0.41
4701 H 6.638787715496329 41.171191695384515 26.76138671251072 H 0.0 **** 0.41
4702 O 36.42834564828956 29.026405914731495 20.86615297788294 O 0.0 **** -0.82
4703 H 37.10422456504951 29.653081772582933 20.484936796834287 H 0.0 **** 0.41
4704 H 36.55937111124721 28.971611830540294 21.8796151318011 H 0.0 **** 0.41
4705 O 1.0978722663980838 28.271963087963982 12.236636716646485 O 0.0 **** -0.82
4706 H 0.35067725141697537 28.93251927135337 12.544092900736109 H 0.0 **** 0.41
4707 H 1.1093579048211917 28.314453383834163 11.213007807777252 H 0.0 **** 0.41
4708 O 23.263436203662966 16.994919895029728 40.71706907877395 O 0.0 **** -0.82
4709 H 23.037390114668792 17.831623129451227 41.237766407643115 H 0.0 **** 0.41
4710 H 22.337544942201312 16.69370394418068 40.415969196707856 H 0.0 **** 0.41
4711 O 45.05401006388747 30.40224732497633 7.660292965014105 O 0.0 **** -0.82
4712 H 45.807340081301014 30.566966048872615 8.340717181229488 H 0.0 **** 0.41
4713 H 44.61624674918531 29.656290618341444 8.186485512969888 H 0.0 **** 0.41
4714 O 18.698767001971806 20.8398177777713 35.78867291000224 O 0.0 **** -0.82
4715 H 18.10632927994181 20.729788005025434 34.937201576538016 H 0.0 **** 0.41
4716 H 19.692787815367865 20.53170198137259 35.44158330307842 H 0.0 **** 0.41
4717 O 11.130133161343496 6.101537081970142 32.15021627938714 O 0.0 **** -0.82
4718 H 11.662386684023474 6.342643102774618 31.292175556966956 H 0.0 **** 0.41
4719 H 10.830639369508209 7.010107925804518 32.5391709465643 H 0.0 **** 0.41
4720 O 4.060521706106705 49.042601396830264 34.960370419381846 O 0.0 **** -0.82
4721 H 4.085255907064266 48.88692132182921 35.966116496905144 H 0.0 **** 0.41
4722 H 3.224353133775871 49.55718603839448 34.75412157486847 H 0.0 **** 0.41
4723 O 9.81380137580872 13.119875151638709 29.522157475406672 O 0.0 **** -0.82
4724 H 9.892635919908814 13.654447900370371 28.664355032398387 H 0.0 **** 0.41
4725 H 8.707755665994135 13.093897001673696 29.610529961742504 H 0.0 **** 0.41
4726 O 7.435371152710502 32.327740893986444 9.748524400807923 O 0.0 **** -0.82
4727 H 6.846896657248699 31.790699638373397 10.30927127794493 H 0.0 **** 0.41
4728 H 7.237165030736058 32.028227426685326 8.793373424170717 H 0.0 **** 0.41
4729 O 34.69197761372914 41.06615385548505 46.008016199773536 O 0.0 **** -0.82
4730 H 35.66157083897326 40.86015662635481 45.70165415441395 H 0.0 **** 0.41
4731 H 34.446273220550026 40.37096655557668 46.74100225076641 H 0.0 **** 0.41
4732 O 49.13086956941443 49.53160087215235 26.34635539893317 O 0.0 **** -0.82
4733 H 49.393900948441726 48.77054863920924 25.76349088594281 H 0.0 **** 0.41
4734 H 48.82715707077805 49.01186278660978 27.174719611174453 H 0.0 **** 0.41
4735 O 21.75661374609255 4.009456445484155 41.75000391304046 O 0.0 **** -0.82
4736 H 21.460045629535987 3.5139579222657673 42.56478678913331 H 0.0 **** 0.41
4737 H 22.7185899746155 3.993339743676337 41.89425628151349 H 0.0 **** 0.41
4738 O 14.40180746414787 5.432527930313263 18.262041181676167 O 0.0 **** -0.82
4739 H 14.057939631857918 4.5240936747779585 18.581831883528636 H 0.0 **** 0.41
4740 H 15.307391588051981 5.49411165966513 17.84750541138432 H 0.0 **** 0.41
4741 O 11.848893617829205 32.55469071348037 10.996634205415342 O 0.0 **** -0.82
4742 H 12.59744325143157 32.21729182713286 11.611940938763825 H 0.0 **** 0.41
4743 H 11.053479713856351 31.869747169505175 11.02212541687411 H 0.0 **** 0.41
4744 O 49.52543658060825 44.82680346889276 37.24249209086648 O 0.0 **** -0.82
4745 H 50.30280920919743 44.500575659433025 36.67461760794657 H 0.0 **** 0.41
4746 H 49.70061310651529 45.541609451662964 37.89913884582877 H 0.0 **** 0.41
4747 O 32.56669899611626 14.636479439708962 44.58678281509348 O 0.0 **** -0.82
4748 H 32.838386027892156 13.720672871574935 44.3497042506007 H 0.0 **** 0.41
4749 H 32.9021392492209 15.149772674375807 43.766609015488676 H 0.0 **** 0.41
4750 O 7.94653722601562 22.89248577561002 26.536866331648536 O 0.0 **** -0.82
4751 H 8.278134602341886 23.024061713209374 25.570004792149195 H 0.0 **** 0.41
4752 H 6.94260512556675 23.035911794357318 26.329007814622457 H 0.0 **** 0.41
4753 O 49.8396215497884 0.18661279090289895 37.018603871046345 O 0.0 **** -0.82
4754 H 49.456644192350915 -0.4181667961313309 36.32254017448025 H 0.0 **** 0.41
4755 H 50.777436783607826 0.439748112663068 36.67476653486339 H 0.0 **** 0.41
4756 O 10.004665553884664 3.461789637220953 46.635513372399785 O 0.0 **** -0.82
4757 H 9.981901036858844 4.401762576813908 47.00400285606198 H 0.0 **** 0.41
4758 H 9.767482181903361 3.548244607191222 45.62552972187271 H 0.0 **** 0.41
4759 O 39.71095953557413 38.96542543327345 27.997989883061415 O 0.0 **** -0.82
4760 H 40.62086088135552 39.32978638946709 28.057417236704996 H 0.0 **** 0.41
4761 H 39.26527266677912 38.99285121127133 28.906795019459267 H 0.0 **** 0.41
4762 O 36.52100764511029 16.209123981404932 38.193834395471825 O 0.0 **** -0.82
4763 H 36.7244811678383 15.57225599214785 38.93963117806497 H 0.0 **** 0.41
4764 H 37.19500728500377 16.97278967521732 38.110959766049895 H 0.0 **** 0.41
4765 O 34.80324665758516 16.84363486819993 35.874081375378054 O 0.0 **** -0.82
4766 H 35.423272090760626 16.447200096832972 36.62470777998736 H 0.0 **** 0.41
4767 H 34.23679678656073 15.994335762883155 35.679393889694765 H 0.0 **** 0.41
4768 O 5.470517650509734 26.84763080669749 1.7340559827659945 O 0.0 **** -0.82
4769 H 5.128161908607815 27.096694541777 2.702876223549282 H 0.0 **** 0.41
4770 H 6.51950328188947 26.83307459635793 1.7425361857078983 H 0.0 **** 0.41
4771 O 33.33505103796155 12.130413568212191 7.526829718700569 O 0.0 **** -0.82
4772 H 33.06696171672959 12.863738757222505 6.873830580346343 H 0.0 **** 0.41
4773 H 32.567500606741845 12.057771350488627 8.24686906228574 H 0.0 **** 0.41
4774 O 16.93458615929767 27.86725536278388 1.7671177234669333 O 0.0 **** -0.82
4775 H 17.269598683807867 28.795651277133878 2.0222014558019086 H 0.0 **** 0.41
4776 H 17.66446480778151 27.26437622968033 2.123750956688067 H 0.0 **** 0.41
4777 O 41.979109982981825 49.08222099233676 8.046006524951977 O 0.0 **** -0.82
4778 H 41.80937149496568 48.04746109912092 8.051504677675794 H 0.0 **** 0.41
4779 H 41.24407905081443 49.477446511537956 8.535976837392084 H 0.0 **** 0.41
4780 O 4.556685552986377 25.447466057921293 8.68691150145647 O 0.0 **** -0.82
4781 H 5.366414569184117 25.53650012301784 8.05138346303719 H 0.0 **** 0.41
4782 H 4.076058849329382 26.324537839086787 8.5873727549147 H 0.0 **** 0.41
4783 O 1.360487455510345 30.52983117038373 32.269535849067815 O 0.0 **** -0.82
4784 H 1.7623129054779483 30.098478616057175 31.38879411726947 H 0.0 **** 0.41
4785 H 2.0841036954964522 31.089089363647965 32.71044950710071 H 0.0 **** 0.41
4786 O 27.25385386380505 19.050905220670018 31.281271312897765 O 0.0 **** -0.82
4787 H 28.018643593159748 18.647308949153512 30.70682985175116 H 0.0 **** 0.41
4788 H 27.831883813015136 19.551883335333656 31.98390376869261 H 0.0 **** 0.41
4789 O 34.84256797650949 10.59298366929344 11.268930238123957 O 0.0 **** -0.82
4790 H 35.519560504002634 10.696950410138255 10.543865859148909 H 0.0 **** 0.41
4791 H 34.96041704562746 9.694670788257344 11.67092895599945 H 0.0 **** 0.41
4792 O 28.079407572623072 27.352525186007792 25.55994991186493 O 0.0 **** -0.82
4793 H 28.62441746736073 26.694768346789775 24.96451920974891 H 0.0 **** 0.41
4794 H 27.203000036774633 26.826286176282004 25.7303343579553 H 0.0 **** 0.41
4795 O 33.14253112544956 17.339552206306223 13.149493749287181 O 0.0 **** -0.82
4796 H 33.76181682607068 17.989284011042642 12.69001966692445 H 0.0 **** 0.41
4797 H 33.68214935030678 16.458327256818563 13.112160180928498 H 0.0 **** 0.41
4798 O 28.59022579937264 20.3280304451758 49.70811697737938 O 0.0 **** -0.82
4799 H 27.7300464191437 20.92437809705658 49.53339434799317 H 0.0 **** 0.41
4800 H 28.27172825529809 19.53818165080961 50.158297611037504 H 0.0 **** 0.41
4801 O 15.467137221944867 20.6380967574065 26.676241341674316 O 0.0 **** -0.82
4802 H 15.172195469306729 19.655490439048208 26.551625900647576 H 0.0 **** 0.41
4803 H 14.767441963725815 20.888212287374245 27.3824215319731 H 0.0 **** 0.41
4804 O 44.98980718602407 43.6221921482542 23.6789235093816 O 0.0 **** -0.82
4805 H 45.901614793618485 43.91247069914114 23.428108146389008 H 0.0 **** 0.41
4806 H 44.79437613980222 44.03895289616844 24.62663374251271 H 0.0 **** 0.41
4807 O 48.709532905925506 12.11294063481501 19.324378481406654 O 0.0 **** -0.82
4808 H 48.66675363571677 12.453999899721572 20.23459477686695 H 0.0 **** 0.41
4809 H 48.268489147800096 12.769604507867951 18.761199594959205 H 0.0 **** 0.41
4810 O 33.462387448376546 1.976078647353738 30.35096632242247 O 0.0 **** -0.82
4811 H 32.71819610478347 2.7059313637700484 30.2682224740208 H 0.0 **** 0.41
4812 H 33.34388511129658 1.6351603486967576 29.40289334011855 H 0.0 **** 0.41
4813 O 40.54640530909824 20.905094197982823 45.54072218678794 O 0.0 **** -0.82
4814 H 39.87129919444178 20.3223430175278 45.98532944593105 H 0.0 **** 0.41
4815 H 41.27834719332724 21.083525289273823 46.17566018307918 H 0.0 **** 0.41
4816 O 45.83342808707805 28.66422800928141 44.07793586012529 O 0.0 **** -0.82
4817 H 45.85220183799882 27.682109123348056 44.001090007603814 H 0.0 **** 0.41
4818 H 45.42451289232025 28.981304587348816 43.201254194302834 H 0.0 **** 0.41
4819 O 33.70246564891505 7.0799612461301615 35.73031702884166 O 0.0 **** -0.82
4820 H 33.34322869948507 6.706792010498095 36.62314990986546 H 0.0 **** 0.41
4821 H 33.448018328386866 8.057057667987984 35.743407016862136 H 0.0 **** 0.41
4822 O 49.12918165477243 16.907018615904533 3.6297631831312596 O 0.0 **** -0.82
4823 H 49.258002032458734 17.678992089939314 2.953789147490763 H 0.0 **** 0.41
4824 H 48.69284287126624 17.48557261154305 4.402138538529259 H 0.0 **** 0.41
4825 O 13.92529432879525 46.274153093460626 0.9143926988170605 O 0.0 **** -0.82
4826 H 14.25273023406188 47.24423961195462 0.7512695030231669 H 0.0 **** 0.41
4827 H 13.980830201445238 45.72521935387878 0.07867716931045265 H 0.0 **** 0.41
4828 O 44.888790836145425 10.752155788791036 11.758761019208443 O 0.0 **** -0.82
4829 H 44.767693578144055 9.812209436652765 12.172927728356775 H 0.0 **** 0.41
4830 H 45.79067951663869 11.034712310049471 12.159412928940611 H 0.0 **** 0.41
4831 O 21.713656716652384 46.14942714744372 30.585891415009865 O 0.0 **** -0.82
4832 H 22.34956756006787 46.66725787244675 31.223857293570102 H 0.0 **** 0.41
4833 H 22.28795809415876 45.34315540107865 30.378366400483472 H 0.0 **** 0.41
4834 O 11.812929471073467 31.968099765829322 48.990349840393435 O 0.0 **** -0.82
4835 H 12.562297171632641 32.62081798349681 48.896203691017966 H 0.0 **** 0.41
4836 H 11.682101540600422 31.88530687655841 50.016583115704584 H 0.0 **** 0.41
4837 O 47.28379627968801 4.84435042464084 13.671086814177137 O 0.0 **** -0.82
4838 H 46.587739723920315 4.289486021992645 14.188687096207175 H 0.0 **** 0.41
4839 H 47.291234401686935 4.484330271905482 12.724307064085252 H 0.0 **** 0.41
4840 O 30.078057019478678 23.60530217509945 39.443153910784034 O 0.0 **** -0.82
4841 H 29.573093248050412 24.385279620402798 39.0055911502642 H 0.0 **** 0.41
4842 H 29.41290781937873 22.857975409851356 39.753736811897 H 0.0 **** 0.41
4843 O 39.72698686656718 45.299728803314466 23.994442168233284 O 0.0 **** -0.82
4844 H 38.73919692779863 45.408118305988374 24.0785531773939 H 0.0 **** 0.41
4845 H 39.84377723368871 44.556255470288626 23.28359765360105 H 0.0 **** 0.41
4846 O 17.311984998589214 41.76963354160052 7.940165772639063 O 0.0 **** -0.82
4847 H 16.369925807996733 41.62447289765675 8.348497197457133 H 0.0 **** 0.41
4848 H 17.79051440100741 42.10519547694524 8.785576934820517 H 0.0 **** 0.41
4849 O 20.102322390112278 15.991352961483017 28.342618325449365 O 0.0 **** -0.82
4850 H 21.10740406318393 15.965373144576077 28.305225043593246 H 0.0 **** 0.41
4851 H 19.870213552487662 15.837837704601085 29.337508061779264 H 0.0 **** 0.41
4852 O 5.517412921003043 32.904377253253664 44.11051026202337 O 0.0 **** -0.82
4853 H 5.65020656474605 33.486194128185375 44.91574787263201 H 0.0 **** 0.41
4854 H 6.079712096383361 33.41252327020519 43.42222805759659 H 0.0 **** 0.41
4855 O 25.326065815042796 30.068900093654815 19.408081806106594 O 0.0 **** -0.82
4856 H 26.29174726144508 30.039116647696105 19.166389384785006 H 0.0 **** 0.41
4857 H 24.97653388969573 29.095405366428785 19.460374924110567 H 0.0 **** 0.41
4858 O 39.60069078770377 1.465047361206686 42.384992268243494 O 0.0 **** -0.82
4859 H 39.14785589292558 1.877600181809541 41.5446691979886 H 0.0 **** 0.41
4860 H 38.87925190164785 1.362930168767761 43.118779321458184 H 0.0 **** 0.41
4861 O 31.937842953634078 41.222196234729005 0.6633619107824202 O 0.0 **** -0.82
4862 H 31.82447538299531 42.106898807840444 1.2284739325985896 H 0.0 **** 0.41
4863 H 32.793654919151344 40.72864025139495 0.8411365445198911 H 0.0 **** 0.41
4864 O 34.84351901760279 26.517229613629627 14.670028868644144 O 0.0 **** -0.82
4865 H 35.871891581337465 26.565205205963203 14.742494066190197 H 0.0 **** 0.41
4866 H 34.59380631854926 25.880184276125792 15.419076388349072 H 0.0 **** 0.41
4867 O 33.91407420785973 36.92514103705496 13.226428557886043 O 0.0 **** -0.82
4868 H 33.27872678891324 36.17346178625385 13.446803559248714 H 0.0 **** 0.41
4869 H 34.07463097044035 36.691819488042974 12.245986210598108 H 0.0 **** 0.41
4870 O 44.256162415078244 38.74784972322015 49.855784830175004 O 0.0 **** -0.82
4871 H 45.195457494163236 38.99385961122114 49.724335137696215 H 0.0 **** 0.41
4872 H 44.015062433589584 38.0985463213461 49.107353439950444 H 0.0 **** 0.41
4873 O 40.9502188869101 5.27875002750482 0.2394051682764271 O 0.0 **** -0.82
4874 H 41.210112361130705 5.460723008092408 -0.7614395001104697 H 0.0 **** 0.41
4875 H 41.65457211980068 5.865303624346801 0.6813092470987456 H 0.0 **** 0.41
4876 O 1.4787841095794647 33.78615948798485 18.879618083558878 O 0.0 **** -0.82
4877 H 0.8283899916747615 34.46437567317613 19.254226023882637 H 0.0 **** 0.41
4878 H 1.3534905603094813 32.98981942848995 19.460471913210377 H 0.0 **** 0.41
4879 O 21.63351169797197 40.92355105780193 25.24072605428495 O 0.0 **** -0.82
4880 H 21.913568409188827 40.86830045226361 24.27508021893692 H 0.0 **** 0.41
4881 H 22.362317417318252 41.454468924510486 25.664125729837874 H 0.0 **** 0.41
4882 O 8.360878986065899 31.49293269933264 5.931441059391856 O 0.0 **** -0.82
4883 H 7.450080095844614 31.745062975991544 6.282101423374563 H 0.0 **** 0.41
4884 H 8.285379859708263 31.45158430936823 4.909239003327939 H 0.0 **** 0.41
4885 O 21.345323668638983 26.70360983944253 7.607435205727668 O 0.0 **** -0.82
4886 H 20.70886247256797 26.861478095037214 6.8351021919279535 H 0.0 **** 0.41
4887 H 21.814899049654215 27.59662822351179 7.875567358879041 H 0.0 **** 0.41
4888 O 26.354286657986716 3.0484668981410628 32.25604846800168 O 0.0 **** -0.82
4889 H 26.881049629112393 2.718213590165498 33.039005688892736 H 0.0 **** 0.41
4890 H 26.555872372865466 2.4611375443371215 31.431503880762307 H 0.0 **** 0.41
4891 O 18.823478297151226 42.97217790738759 3.8816763812409434 O 0.0 **** -0.82
4892 H 18.446077098953282 43.185091435181164 4.76886954843669 H 0.0 **** 0.41
4893 H 18.525146631312733 43.69229236740868 3.213917934665133 H 0.0 **** 0.41
4894 O 38.52511189166425 42.753472324970005 27.206451315982548 O 0.0 **** -0.82
4895 H 37.867623248848886 42.059071397148436 27.613313210467 H 0.0 **** 0.41
4896 H 38.7367955261717 42.36121600653531 26.341945003189956 H 0.0 **** 0.41
4897 O 3.824015267867871 0.5405077793924562 41.49060989580276 O 0.0 **** -0.82
4898 H 3.954174385753504 1.0190231178511198 42.37090400842116 H 0.0 **** 0.41
4899 H 3.162808148864052 -0.20021913269711433 41.789355336464794 H 0.0 **** 0.41
4900 O 1.0628254050456007 15.75801326113016 0.9196501445365968 O 0.0 **** -0.82
4901 H 1.2298972078816135 15.76335748149689 -0.05617832123147082 H 0.0 **** 0.41
4902 H 0.08122344368927514 15.519043097787659 0.9262370328319065 H 0.0 **** 0.41
4903 O 28.205997377940342 44.426787352719465 42.49936738236404 O 0.0 **** -0.82
4904 H 28.273659968325106 43.9023120164965 41.6421147964475 H 0.0 **** 0.41
4905 H 28.24670933376698 43.68478516180965 43.27054463074449 H 0.0 **** 0.41
4906 O 47.15670075620544 45.35625695327286 48.92072439089888 O 0.0 **** -0.82
4907 H 48.058112888035595 45.11119135104636 49.32712098755405 H 0.0 **** 0.41
4908 H 47.28471201787482 45.96444072190456 48.09899113119459 H 0.0 **** 0.41
4909 O 43.37540352354062 13.573256055750733 47.18440712930328 O 0.0 **** -0.82
4910 H 42.35073693990326 13.485659412290303 47.3797402197046 H 0.0 **** 0.41
4911 H 43.77342067439341 12.888408972058826 47.782228222925 H 0.0 **** 0.41
4912 O 19.909077325036847 39.61996334206607 26.972875937695793 O 0.0 **** -0.82
4913 H 20.563217364857806 40.102701366034964 26.395804968503835 H 0.0 **** 0.41
4914 H 19.0472727768593 40.147427783064465 27.19272550444743 H 0.0 **** 0.41
4915 O 14.245899502508701 46.678107421440004 11.324199305871296 O 0.0 **** -0.82
4916 H 14.545235433920613 45.92924055111537 11.97192308303848 H 0.0 **** 0.41
4917 H 13.933541171197064 47.4145982790075 11.938413610099952 H 0.0 **** 0.41
4918 O 9.679777312039016 19.213790707181705 1.4308960630806344 O 0.0 **** -0.82
4919 H 8.895936340066502 18.550209276377494 1.2969644782991743 H 0.0 **** 0.41
4920 H 10.218135827107979 19.370158211873004 0.539579374067033 H 0.0 **** 0.41
4921 O 45.347055093431656 33.33968476976753 23.23894323531554 O 0.0 **** -0.82
4922 H 44.46672634851112 33.199356424309364 23.786836198967677 H 0.0 **** 0.41
4923 H 45.99737113567566 32.649201245118675 23.57856108440543 H 0.0 **** 0.41
4924 O 18.00594536799653 16.957150246491963 32.78600709396762 O 0.0 **** -0.82
4925 H 17.379081247264168 17.525126487345887 32.25267626369807 H 0.0 **** 0.41
4926 H 17.519203846630163 16.671341235549335 33.66344613794825 H 0.0 **** 0.41
4927 O 26.991471647771714 15.682805212166626 30.620088143889575 O 0.0 **** -0.82
4928 H 26.061977073342888 16.090557583543635 30.408347839418948 H 0.0 **** 0.41
4929 H 27.662769368155168 16.398410043787717 30.75385682337409 H 0.0 **** 0.41
4930 O 1.2848497623901096 49.4148694134734 45.987910810372135 O 0.0 **** -0.82
4931 H 0.6418817098069667 48.65521922769566 46.17749560700282 H 0.0 **** 0.41
4932 H 2.1677125336144556 48.949852022500586 45.63202170657159 H 0.0 **** 0.41
4933 O 15.118486847712198 23.657960419312975 22.480753504823117 O 0.0 **** -0.82
4934 H 14.576775491980616 24.343086516855987 23.000385613909806 H 0.0 **** 0.41
4935 H 14.940886028566522 22.781828808483787 22.995418279190154 H 0.0 **** 0.41
4936 O 7.2774709477741 16.822041155815697 42.24760467328466 O 0.0 **** -0.82
4937 H 7.161993734819792 16.490669429630373 43.20221175919091 H 0.0 **** 0.41
4938 H 6.625632920076529 17.52651800150872 42.16039873361085 H 0.0 **** 0.41
4939 O 2.9266361976137225 46.610361018829934 33.75564809667735 O 0.0 **** -0.82
4940 H 3.789932936038309 47.07066359962786 34.04137005323453 H 0.0 **** 0.41
4941 H 2.5391183231482017 46.30948715057849 34.6397340374428 H 0.0 **** 0.41
4942 O 3.806229204087174 3.908167864586489 40.59305341908851 O 0.0 **** -0.82
4943 H 3.31023711210689 4.7873169440148855 40.86794700694091 H 0.0 **** 0.41
4944 H 4.684207916994751 4.025025682639082 41.06138692636366 H 0.0 **** 0.41
4945 O 8.672783044175533 23.201736961592456 24.182793859443816 O 0.0 **** -0.82
4946 H 7.999403540396726 23.450406390885245 23.464358877310207 H 0.0 **** 0.41
4947 H 9.305955837578242 22.51487589084245 23.794268034783585 H 0.0 **** 0.41
4948 O 30.712868780605348 16.95279969884737 11.905700941890272 O 0.0 **** -0.82
4949 H 30.095605610770576 17.66720805726504 11.45028574436293 H 0.0 **** 0.41
4950 H 31.61336878310638 17.36046524789802 12.21409522915723 H 0.0 **** 0.41
4951 O 34.1053798951516 29.75588948779701 35.25666054351751 O 0.0 **** -0.82
4952 H 33.200947574243344 29.351613141379847 35.54512166231645 H 0.0 **** 0.41
4953 H 34.30055185500248 30.603398736309718 35.750185835038685 H 0.0 **** 0.41
4954 O 0.21386336951454396 18.12815792702825 47.68129888179602 O 0.0 **** -0.82
4955 H 1.1805566863212344 18.568650169224423 47.71900773457579 H 0.0 **** 0.41
4956 H -0.06189145032727339 18.432993781792796 46.79506676483677 H 0.0 **** 0.41
4957 O 36.19116946952662 35.73972892208925 8.732821505870753 O 0.0 **** -0.82
4958 H 36.443824331082254 34.77503465636362 8.982616145993894 H 0.0 **** 0.41
4959 H 36.82000872524626 36.27340516235389 9.300611957007277 H 0.0 **** 0.41
4960 O 36.51219682391193 43.76702111839112 43.74979438063176 O 0.0 **** -0.82
4961 H 37.5168125249908 43.48641912344086 43.58965038815783 H 0.0 **** 0.41
4962 H 36.01394683779828 43.56498563839756 42.91969621066719 H 0.0 **** 0.41
4963 O 4.3057313507541295 45.30290203771761 29.739698020895222 O 0.0 **** -0.82
4964 H 3.3153262640615395 45.0898027660619 29.667008550074684 H 0.0 **** 0.41
4965 H 4.346631472744399 46.32886708645338 29.759858059415297 H 0.0 **** 0.41
4966 O 32.77386791901892 16.15676356254525 20.299555344770056 O 0.0 **** -0.82
4967 H 31.963322397045932 16.33332239440648 19.788952264244944 H 0.0 **** 0.41
4968 H 33.26563667540565 17.00707767715396 20.05682185356372 H 0.0 **** 0.41
4969 O 44.912807543265345 0.6264256365709642 18.20804939466159 O 0.0 **** -0.82
4970 H 45.71055781445256 0.48503621445029665 18.872111355594473 H 0.0 **** 0.41
4971 H 45.48137005413773 0.685257100106277 17.352540851847607 H 0.0 **** 0.41
4972 O 20.0739329324096 2.4583536968608612 38.751306166613205 O 0.0 **** -0.82
4973 H 20.643094434350285 1.8660830218604403 39.2493421057491 H 0.0 **** 0.41
4974 H 19.823261794665893 1.9822644900405137 37.911299177835936 H 0.0 **** 0.41
4975 O 46.303627777754265 11.279965463756369 32.01660149902514 O 0.0 **** -0.82
4976 H 46.61910383465361 10.667082697718584 32.7331377285151 H 0.0 **** 0.41
4977 H 45.90307248485205 12.046078344082538 32.60073899347634 H 0.0 **** 0.41
4978 O 30.675708031838894 20.65768999550599 3.111088005182502 O 0.0 **** -0.82
4979 H 30.191975865121535 21.530447779937248 3.384028514000974 H 0.0 **** 0.41
4980 H 31.06540332827072 20.901702510075467 2.1452518635329767 H 0.0 **** 0.41
4981 O 0.03357578992761427 20.07906425092692 30.704910833619447 O 0.0 **** -0.82
4982 H 0.08581012172882758 20.934027924650955 30.150889506267426 H 0.0 **** 0.41
4983 H -0.9290981775327865 20.138794603472398 31.04873291947144 H 0.0 **** 0.41
4984 O 6.732258204945525 33.694019198286995 12.216687259290708 O 0.0 **** -0.82
4985 H 7.04870530625748 33.046164241439854 11.53969787690857 H 0.0 **** 0.41
4986 H 7.264684866080887 33.48160220506 13.08733935269506 H 0.0 **** 0.41
4987 O 13.203907231213716 19.679827771656267 21.43687142310248 O 0.0 **** -0.82
4988 H 14.018638837235377 19.987949513357883 20.942080133397067 H 0.0 **** 0.41
4989 H 12.435042290631065 20.256190859094758 21.16555374268975 H 0.0 **** 0.41
4990 O 37.01261264890366 10.991410648854675 9.597488926915881 O 0.0 **** -0.82
4991 H 37.6404841103518 10.255514198892259 9.211703685711374 H 0.0 **** 0.41
4992 H 36.75473548247997 11.612846324881355 8.863270057763048 H 0.0 **** 0.41
4993 O 38.398859204258564 12.015796917979989 17.15563507456802 O 0.0 **** -0.82
4994 H 38.03558712352287 11.068405900050292 17.204563663571836 H 0.0 **** 0.41
4995 H 39.22527144401406 11.871547176559202 16.573025189236933 H 0.0 **** 0.41
4996 O 25.80301803308269 27.53698059612267 43.81990166037644 O 0.0 **** -0.82
4997 H 26.321952071799267 28.250274063077846 43.34427753085795 H 0.0 **** 0.41
4998 H 26.499201119795014 26.84388963987447 44.132355800046476 H 0.0 **** 0.41
4999 O 34.72095860292249 0.5478107330247636 16.7869925778 O 0.0 **** -0.82
5000 H 35.50351810983718 1.158580507787797 16.96220037880317 H 0.0 **** 0.41
5001 H 34.978613580743506 -0.38070395738395035 17.044967378301596 H 0.0 **** 0.41
5002 O 49.19004037207372 36.55930777109314 17.753201170806292 O 0.0 **** -0.82
5003 H 48.91783226833529 37.12454336712773 18.51819602847898 H 0.0 **** 0.41
5004 H 48.70093699619661 35.67351945500755 17.987968881579366 H 0.0 **** 0.41
5005 O 37.48588571151737 34.63181740067398 47.33831148707924 O 0.0 **** -0.82
5006 H 38.14257412736943 34.986074950697045 47.996785734201055 H 0.0 **** 0.41
5007 H 37.67069211261165 33.65542497396747 47.47191507678006 H 0.0 **** 0.41
5008 O 2.267972117311352 39.765474168298155 47.105583720286475 O 0.0 **** -0.82
5009 H 1.5928748629089853 39.181565561777944 47.594602929435744 H 0.0 **** 0.41
5010 H 2.5263825153979553 39.33469462483738 46.238772921725285 H 0.0 **** 0.41
5011 O 23.37157075704217 22.599728789015312 31.688177669383023 O 0.0 **** -0.82
5012 H 23.094203918695225 23.067609517504394 32.53304339527827 H 0.0 **** 0.41
5013 H 24.365668323475372 22.772139967242488 31.486569996721588 H 0.0 **** 0.41
5014 O 29.62956674912465 42.358219580320494 37.99157693075886 O 0.0 **** -0.82
5015 H 30.35359430801387 41.66951206136179 37.64986229370633 H 0.0 **** 0.41
5016 H 29.669815601572772 42.21541868268118 39.00199967002432 H 0.0 **** 0.41
5017 O 42.40264376083328 18.47881323078815 6.906798785197269 O 0.0 **** -0.82
5018 H 41.90479068731642 18.714358295098023 7.752895443992382 H 0.0 **** 0.41
5019 H 42.123450026330644 17.550682082874857 6.7631212633671405 H 0.0 **** 0.41
5020 O 34.38401506613454 29.200902014746813 48.68649015489031 O 0.0 **** -0.82
5021 H 35.31724876674175 29.080938059071077 48.23354886290091 H 0.0 **** 0.41
5022 H 34.58530009998137 29.92934388011973 49.37335181649371 H 0.0 **** 0.41
5023 O 29.186802297923364 21.002557002067388 28.63648710581219 O 0.0 **** -0.82
5024 H 30.15303230997393 20.683616534495986 28.527971181261186 H 0.0 **** 0.41
5025 H 28.85488937661189 21.364767619148953 27.762677737325117 H 0.0 **** 0.41
5026 O 44.99541508383686 40.70701419104086 17.700988912186574 O 0.0 **** -0.82
5027 H 45.73735669403367 40.81942572276519 17.027552011609544 H 0.0 **** 0.41
5028 H 44.26672075212483 40.26867639222637 17.238905691763634 H 0.0 **** 0.41
5029 O 31.580225616306144 39.44420768260733 23.281287031024466 O 0.0 **** -0.82
5030 H 31.384134546719082 40.27014675829817 22.65624385997481 H 0.0 **** 0.41
5031 H 32.50246426284994 39.14977194316849 23.21538094212825 H 0.0 **** 0.41
5032 O 20.064003331316002 30.95709107798491 45.63708886870427 O 0.0 **** -0.82
5033 H 20.952648799084727 31.090827299914714 46.05456911581153 H 0.0 **** 0.41
5034 H 19.879417872297154 31.736718091001002 45.02536739753191 H 0.0 **** 0.41
5035 O 12.45080130778096 29.03125426054669 0.9486170864421197 O 0.0 **** -0.82
5036 H 11.96696621239561 29.816747042931638 1.327410942298414 H 0.0 **** 0.41
5037 H 13.177291881884036 28.773410245578468 1.6615614261571423 H 0.0 **** 0.41
5038 O 19.914659871656774 31.586460473605854 13.149894446377663 O 0.0 **** -0.82
5039 H 19.97741552775354 32.56468076636202 12.897546860274383 H 0.0 **** 0.41
5040 H 19.522347995960466 31.598161046008272 14.069357454896544 H 0.0 **** 0.41
5041 O 16.712879331635303 36.0203285360748 35.59959035104566 O 0.0 **** -0.82
5042 H 16.021223880010258 35.72886357532871 36.33570834068231 H 0.0 **** 0.41
5043 H 16.959133543382716 35.10420851914736 35.247272428498356 H 0.0 **** 0.41
5044 O 36.561116925443706 49.94764425912253 23.339507477658515 O 0.0 **** -0.82
5045 H 36.00832951244315 50.66857161341441 22.826486476832997 H 0.0 **** 0.41
5046 H 35.842635034890776 49.33911767429542 23.69509813772723 H 0.0 **** 0.41
5047 O 47.70952405920131 18.69833996621407 5.333776635335056 O 0.0 **** -0.82
5048 H 47.32132006239619 19.499798336105908 5.80086761770459 H 0.0 **** 0.41
5049 H 47.18694572745589 17.89942815204712 5.637540047420465 H 0.0 **** 0.41
5050 O 27.9679055614358 29.74709596066181 19.09913949253211 O 0.0 **** -0.82
5051 H 28.108366048452496 29.07887285199711 19.903478831605184 H 0.0 **** 0.41
5052 H 28.76321583081102 30.374378922652877 19.175276508155687 H 0.0 **** 0.41
5053 O 33.879522461741374 19.337002357307938 35.78149043031334 O 0.0 **** -0.82
5054 H 34.340619815224045 19.564097171415987 36.6488859090547 H 0.0 **** 0.41
5055 H 34.15932019339121 18.361339590223523 35.71637420057506 H 0.0 **** 0.41
5056 O 16.27657188327919 39.052602151881274 18.91571782890025 O 0.0 **** -0.82
5057 H 15.795773785293761 38.74311304592724 19.77281234709559 H 0.0 **** 0.41
5058 H 15.557848931501383 39.77154161241048 18.690364445120494 H 0.0 **** 0.41
5059 O 24.480343948410656 27.6183099208595 15.70436289230434 O 0.0 **** -0.82
5060 H 23.67169881263667 28.28413241049071 15.755358832819203 H 0.0 **** 0.41
5061 H 24.544675215759664 27.459532489043138 14.699542978635774 H 0.0 **** 0.41
5062 O 0.07462737875946354 21.667036112859112 18.124281118373954 O 0.0 **** -0.82
5063 H 0.9334424523481376 22.088685373048055 17.75713186000746 H 0.0 **** 0.41
5064 H -0.17767402902698848 22.22233073922758 18.94510891816349 H 0.0 **** 0.41
5065 O 26.178095846238346 19.128342638840945 48.37550573413609 O 0.0 **** -0.82
5066 H 26.301479080097096 20.10885084392009 48.34336420459521 H 0.0 **** 0.41
5067 H 25.536989465731992 18.861062782239422 49.07173182252503 H 0.0 **** 0.41
5068 O 8.077321218114443 20.252436662891185 30.21504039816942 O 0.0 **** -0.82
5069 H 8.506860239871804 20.57101667662826 29.383589565960296 H 0.0 **** 0.41
5070 H 7.92025500136337 19.22594987662947 30.042285170073587 H 0.0 **** 0.41
5071 O 10.241621369485518 35.31966853594945 7.7729912620471975 O 0.0 **** -0.82
5072 H 10.661758741509646 35.9218747705917 7.100356824768697 H 0.0 **** 0.41
5073 H 10.503338724548774 34.362387529134196 7.5276665951994435 H 0.0 **** 0.41
5074 O 12.399611476725557 15.776384926817954 2.969612008534228 O 0.0 **** -0.82
5075 H 11.624567126842337 15.632204955317576 2.4369051779267115 H 0.0 **** 0.41
5076 H 13.205131431895351 15.758265542349022 2.371146664888818 H 0.0 **** 0.41
5077 O 20.583332490561517 17.972223785068095 32.98984785834412 O 0.0 **** -0.82
5078 H 19.566553315088186 17.853746000553706 33.0264772229675 H 0.0 **** 0.41
5079 H 20.648127684467923 18.027799632673087 31.968290920823783 H 0.0 **** 0.41
5080 O 9.515247881552227 11.158995423953474 21.56951341884214 O 0.0 **** -0.82
5081 H 10.44159000957049 11.433042370362458 21.440665901043385 H 0.0 **** 0.41
5082 H 9.306212673344262 10.672651619046357 20.704617405895636 H 0.0 **** 0.41
5083 O 10.289532167360827 8.727560538887616 32.55890611196159 O 0.0 **** -0.82
5084 H 10.425188725571525 9.07170697849093 33.532587854368614 H 0.0 **** 0.41
5085 H 9.32700206809207 8.844220405316243 32.43673365634682 H 0.0 **** 0.41
5086 O 46.163343294296915 3.274343204934386 37.82473437781398 O 0.0 **** -0.82
5087 H 46.02171405328156 4.124895734212169 37.33762832757638 H 0.0 **** 0.41
5088 H 46.80997614408319 3.567376761342987 38.61209208277569 H 0.0 **** 0.41
5089 O 13.42411333768606 22.07409809907194 37.443571084595966 O 0.0 **** -0.82
5090 H 12.976461752967719 21.9994349399035 36.52733794683036 H 0.0 **** 0.41
5091 H 14.38001184249576 22.354889052243866 37.24733928537809 H 0.0 **** 0.41
5092 O 38.142787361075705 41.465223305633685 47.97033428727984 O 0.0 **** -0.82
5093 H 37.58369940259751 41.048068749354826 47.291684802691115 H 0.0 **** 0.41
5094 H 38.09699907233234 40.79130242997698 48.774209084000226 H 0.0 **** 0.41
5095 O 14.809881024392809 32.401767782196046 44.1346809511098 O 0.0 **** -0.82
5096 H 13.973793863730739 33.00894857261738 43.86346784219692 H 0.0 **** 0.41
5097 H 14.329904180651006 31.499239855089254 44.15201030457092 H 0.0 **** 0.41
5098 O 37.87758477211568 19.538839448517365 25.022481828783413 O 0.0 **** -0.82
5099 H 37.606194432200354 20.407052030979145 25.527330008773454 H 0.0 **** 0.41
5100 H 37.010039610529674 19.046716021419144 24.858664381730094 H 0.0 **** 0.41
5101 O 48.35032821590732 2.5936539406796015 25.567963453536507 O 0.0 **** -0.82
5102 H 48.172964177696656 1.6715922026974326 25.92122264765545 H 0.0 **** 0.41
5103 H 48.79915182880416 2.483910973868184 24.688204110781946 H 0.0 **** 0.41
5104 O 15.995920082473996 0.4702317315766965 30.63932454009972 O 0.0 **** -0.82
5105 H 16.080319602812594 1.4741075983816858 30.371674693580587 H 0.0 **** 0.41
5106 H 16.1858369909123 0.6149755864518468 31.669886639967515 H 0.0 **** 0.41
5107 O 27.705993867902354 5.898915534175649 28.81019841622652 O 0.0 **** -0.82
5108 H 27.917581242423562 5.072650783266621 29.32010258630665 H 0.0 **** 0.41
5109 H 27.54434011101755 6.536242380405887 29.61012648167188 H 0.0 **** 0.41
5110 O 46.94811314363775 42.902070350522045 2.577639052282727 O 0.0 **** -0.82
5111 H 47.38655675376406 43.572089691313266 2.001017661346772 H 0.0 **** 0.41
5112 H 46.909013104573575 43.42340718802562 3.4663347609117565 H 0.0 **** 0.41
5113 O 1.805290797452537 48.66547235739225 41.9322484985914 O 0.0 **** -0.82
5114 H 1.3864527147604702 47.905537017538364 42.55902407917468 H 0.0 **** 0.41
5115 H 1.1582625655213397 49.398546245021365 42.17822251012847 H 0.0 **** 0.41
5116 O 28.975478250287324 19.747330785914993 24.52872358039258 O 0.0 **** -0.82
5117 H 29.242733587646327 20.59735119592737 25.039112251076972 H 0.0 **** 0.41
5118 H 28.484462283039488 19.17329649523226 25.232715008715616 H 0.0 **** 0.41
5119 O 17.540185215049565 42.34335970935928 49.69093962396484 O 0.0 **** -0.82
5120 H 16.91334887367709 42.32189869073126 50.46972587881273 H 0.0 **** 0.41
5121 H 18.44595033324475 42.43339867100569 50.22539647549552 H 0.0 **** 0.41
5122 O 48.882465221280995 7.267847570266625 46.29185765716954 O 0.0 **** -0.82
5123 H 49.120306471766774 7.96518093094447 47.018132605474335 H 0.0 **** 0.41
5124 H 47.99250127505122 6.927992331372437 46.617490139251544 H 0.0 **** 0.41
5125 O 18.089941822157996 4.2906793123590745 49.0681204709082 O 0.0 **** -0.82
5126 H 18.106107434813477 5.058149374153544 48.37751288721953 H 0.0 **** 0.41
5127 H 18.9538241560321 3.8048641569831716 48.988690480358954 H 0.0 **** 0.41
5128 O 29.464587148993626 26.867563699427418 18.945910655130927 O 0.0 **** -0.82
5129 H 29.735086478955118 27.248113435266458 18.049634741596694 H 0.0 **** 0.41
5130 H 28.55803679038857 26.733744103427398 18.63076706263563 H 0.0 **** 0.41
5131 O 22.28585487822994 45.17815219946142 18.27232406922245 O 0.0 **** -0.82
5132 H 21.715549459443224 44.351051408381466 18.34306655366315 H 0.0 **** 0.41
5133 H 23.203514793908084 44.72385572722508 18.424823431679087 H 0.0 **** 0.41
5134 O 4.7916388756297295 36.49650085104214 34.78120065972979 O 0.0 **** -0.82
5135 H 5.335181185492914 36.855363650558196 34.01056846310962 H 0.0 **** 0.41
5136 H 4.7301444409924045 35.53364709630687 34.54020806147378 H 0.0 **** 0.41
5137 O 5.083043497829877 34.6887926599253 40.95385700825068 O 0.0 **** -0.82
5138 H 5.826755000635124 34.67343674241888 40.24582070872799 H 0.0 **** 0.41
5139 H 4.282729617197909 35.21655930768568 40.570732679724514 H 0.0 **** 0.41
5140 O 13.605546485102614 40.22473915322223 19.19920845487894 O 0.0 **** -0.82
5141 H 13.466991935489531 39.342338206277276 19.619232011346153 H 0.0 **** 0.41
5142 H 13.273530015519157 40.933195648511514 19.84267295370761 H 0.0 **** 0.41
5143 O 3.7808175815730083 2.46542316397509 12.484904868021083 O 0.0 **** -0.82
5144 H 4.035003823638269 1.4878750321437901 12.365719521932519 H 0.0 **** 0.41
5145 H 4.715909229882238 2.9171295267064976 12.592575059042183 H 0.0 **** 0.41
5146 O 1.1203654190198051 14.340393439828503 39.8507909335103 O 0.0 **** -0.82
5147 H 1.2340142586553 14.63256994471044 38.85589945667036 H 0.0 **** 0.41
5148 H 2.0729080890307188 14.408461780216072 40.25946726404342 H 0.0 **** 0.41
5149 O 10.971786110857842 48.61832432750467 15.742830785196153 O 0.0 **** -0.82
5150 H 10.526705916499417 47.86067300926107 15.220174282438139 H 0.0 **** 0.41
5151 H 11.277746529147663 48.177756898457694 16.597165099254994 H 0.0 **** 0.41
5152 O 47.3454342426777 19.864750399606503 31.252581213132487 O 0.0 **** -0.82
5153 H 46.8904719272022 19.067792117047865 31.62679918047246 H 0.0 **** 0.41
5154 H 46.76485252567427 20.08040068744046 30.424284474884388 H 0.0 **** 0.41
5155 O 15.002237493289897 22.888737419727303 33.296890891811124 O 0.0 **** -0.82
5156 H 14.337321667737825 22.161948211210987 33.53390368770284 H 0.0 **** 0.41
5157 H 14.439998976899759 23.69139547035335 33.08415547328652 H 0.0 **** 0.41
5158 O 0.28314567399630625 8.919950142896267 2.0351549607685158 O 0.0 **** -0.82
5159 H 0.7913859882263412 9.497807447974754 2.683097053525316 H 0.0 **** 0.41
5160 H 0.5999818831076419 7.977220132557948 2.188404328086982 H 0.0 **** 0.41
5161 O 13.37335254902478 25.473938571827286 31.764199746770956 O 0.0 **** -0.82
5162 H 12.625241004409133 25.277010990296564 32.437456542829835 H 0.0 **** 0.41
5163 H 12.850609381852905 25.675272906692904 30.908611792300846 H 0.0 **** 0.41
5164 O 8.755771342131311 5.229432484274696 30.131889362725687 O 0.0 **** -0.82
5165 H 8.350883931901741 4.457657569476616 30.65656888770107 H 0.0 **** 0.41
5166 H 9.285446202499017 5.790814788067557 30.81191527721711 H 0.0 **** 0.41
5167 O 24.365977191710964 27.164016789091974 28.180133046824448 O 0.0 **** -0.82
5168 H 24.972574619732878 26.469087456665903 28.625087132483976 H 0.0 **** 0.41
5169 H 24.49159887028949 28.045718598062223 28.653773949288304 H 0.0 **** 0.41
5170 O 21.985394298252686 4.60595912942547 11.85238771198707 O 0.0 **** -0.82
5171 H 22.80260179578744 4.1015590032093305 11.422996669286789 H 0.0 **** 0.41
5172 H 21.899073180877892 5.588234612659174 11.606329586219012 H 0.0 **** 0.41
5173 O 24.775058892901388 49.58049855393211 37.08780394674511 O 0.0 **** -0.82
5174 H 24.60342815522954 48.561754330542264 37.0527370914504 H 0.0 **** 0.41
5175 H 24.558314818254164 49.867096042245365 36.193088962772954 H 0.0 **** 0.41
5176 O 17.70115798371591 44.75169787320653 9.666121727647516 O 0.0 **** -0.82
5177 H 18.575429032153863 44.751843154385355 9.138727071764585 H 0.0 **** 0.41
5178 H 17.390478475145088 45.706275517336174 9.757923182903912 H 0.0 **** 0.41
5179 O 19.060276351372096 25.795519272439883 18.77318041934257 O 0.0 **** -0.82
5180 H 19.325411612016907 24.91798064716218 19.173255863913205 H 0.0 **** 0.41
5181 H 19.608283722717726 25.930157356929648 17.927326243175468 H 0.0 **** 0.41
5182 O 23.102396511116595 2.759312134883497 15.652747463305886 O 0.0 **** -0.82
5183 H 22.962851379739824 2.08331395917913 16.398101044294314 H 0.0 **** 0.41
5184 H 22.321660735801977 2.678566716840612 15.01473560190254 H 0.0 **** 0.41
5185 O 12.33765440145471 19.41553842263692 36.19134262596383 O 0.0 **** -0.82
5186 H 11.90823221611227 18.804889624332237 36.818631877245956 H 0.0 **** 0.41
5187 H 11.441211235233032 19.912415044740975 35.913153722063385 H 0.0 **** 0.41
5188 O 36.73459230733037 4.090073605946735 1.3256840151910652 O 0.0 **** -0.82
5189 H 36.600508960639054 4.971851765517073 1.8034679251690093 H 0.0 **** 0.41
5190 H 37.65236636093861 4.102956568014989 0.852298105181184 H 0.0 **** 0.41
5191 O 10.043080578221364 15.312984092532247 20.845862681354888 O 0.0 **** -0.82
5192 H 10.522116580084138 15.264251539483382 19.93767613459214 H 0.0 **** 0.41
5193 H 9.137554397193838 15.112293331863953 20.57949493201664 H 0.0 **** 0.41
5194 O 43.70108377188218 40.72308079611198 5.61951868606596 O 0.0 **** -0.82
5195 H 43.20988450700566 41.64281578688979 5.664148853528055 H 0.0 **** 0.41
5196 H 43.83703480296489 40.24871434653738 6.523668420336365 H 0.0 **** 0.41
5197 O 20.4292059802796 44.510371385183895 11.719360877212779 O 0.0 **** -0.82
5198 H 20.726670707408275 45.39146036730906 12.119093719631465 H 0.0 **** 0.41
5199 H 20.71086584579503 44.42469663034495 10.723857794196498 H 0.0 **** 0.41
5200 O 13.83499369277058 29.712525206797665 17.62629660362864 O 0.0 **** -0.82
5201 H 14.375889124638807 29.96112463307974 18.458067593358475 H 0.0 **** 0.41
5202 H 13.463022866090727 28.80525725424533 17.79636435439057 H 0.0 **** 0.41
5203 O 47.61368979774149 48.70520652240184 4.874644479835775 O 0.0 **** -0.82
5204 H 47.795794588772814 47.767375283532516 5.005085593373846 H 0.0 **** 0.41
5205 H 47.83568684193725 49.244722524432255 5.696204952194461 H 0.0 **** 0.41
5206 O 2.091120235440868 21.059460595754246 9.460544508349564 O 0.0 **** -0.82
5207 H 1.4035024951592014 20.57971144147197 9.971277794867135 H 0.0 **** 0.41
5208 H 2.504288517501846 21.71599942995209 10.121584691536427 H 0.0 **** 0.41
5209 O 13.942580721826937 26.962837788017456 48.75432362631485 O 0.0 **** -0.82
5210 H 13.72987981920708 27.360799166117594 49.66045701791629 H 0.0 **** 0.41
5211 H 14.943297324855333 27.04706241963617 48.72635349684049 H 0.0 **** 0.41
5212 O 11.494875626947207 40.3363406746331 35.555609772687994 O 0.0 **** -0.82
5213 H 12.429720008188426 39.96593670800973 35.7130081218873 H 0.0 **** 0.41
5214 H 11.281272602647116 40.31950298069912 34.553433580359744 H 0.0 **** 0.41
5215 O 30.712501852458466 31.95218288720637 29.286541778518174 O 0.0 **** -0.82
5216 H 31.479160291828546 31.976056414302175 28.610478407057567 H 0.0 **** 0.41
5217 H 30.426178643545775 30.981710145668075 29.3427507904899 H 0.0 **** 0.41
5218 O 41.32885152731957 30.364975005973392 16.03413007833221 O 0.0 **** -0.82
5219 H 41.030810380856245 29.77388929989373 15.260119676422775 H 0.0 **** 0.41
5220 H 41.04247497152962 29.986478504876604 16.89682843514905 H 0.0 **** 0.41
5221 O 37.277160450197364 16.06962938454544 41.83845290061075 O 0.0 **** -0.82
5222 H 36.94906522948503 16.873376446181506 41.31970777947009 H 0.0 **** 0.41
5223 H 38.19502936576298 16.209330503082118 42.286134831862945 H 0.0 **** 0.41
5224 O 46.3721913065481 35.55448035602727 30.514037522076702 O 0.0 **** -0.82
5225 H 46.58072516366032 34.953240925688796 31.32134088822508 H 0.0 **** 0.41
5226 H 45.62740907359475 35.11351095239255 29.990133206459774 H 0.0 **** 0.41
5227 O 30.554145575387587 49.75243594127152 0.5197909595161294 O 0.0 **** -0.82
5228 H 29.700431434598244 50.247799163786766 0.4670767677503005 H 0.0 **** 0.41
5229 H 30.676276579376317 49.4798562552166 -0.4719859873162662 H 0.0 **** 0.41
5230 O 24.316405446516775 13.128976289026504 21.798154485189784 O 0.0 **** -0.82
5231 H 23.82591736832203 13.726231825228272 22.45195494206793 H 0.0 **** 0.41
5232 H 23.54717861444649 12.709779119015131 21.291899080825843 H 0.0 **** 0.41
5233 O 17.969956350761763 25.749952168992188 13.309846210508953 O 0.0 **** -0.82
5234 H 17.31328857526332 25.14969797472064 12.79725537004144 H 0.0 **** 0.41
5235 H 17.760183560808958 26.66862125691125 12.965069864349475 H 0.0 **** 0.41
5236 O 7.293629392501849 44.23114586316946 49.20524105437455 O 0.0 **** -0.82
5237 H 6.750052800877029 43.900168308455804 48.42642945792654 H 0.0 **** 0.41
5238 H 8.214399372199608 43.921764494762954 48.990842227981105 H 0.0 **** 0.41
5239 O 1.7613901999431842 29.626327660386778 36.76183103434192 O 0.0 **** -0.82
5240 H 1.2644730642910005 29.202534001494318 35.93768581203385 H 0.0 **** 0.41
5241 H 1.7743453889015603 30.622991663574325 36.650381940514094 H 0.0 **** 0.41
5242 O 40.2642033376508 44.60321346181629 15.63860551939227 O 0.0 **** -0.82
5243 H 39.973465104741905 45.53482750859945 15.81983267297217 H 0.0 **** 0.41
5244 H 39.87014308325762 44.3215259081793 14.778957838752266 H 0.0 **** 0.41
5245 O 28.43899375528636 43.46120098070973 2.6403094114020607 O 0.0 **** -0.82
5246 H 28.42572286354564 44.366348876269406 2.282353725867167 H 0.0 **** 0.41
5247 H 27.8078550907062 43.466621482620724 3.4796793245508653 H 0.0 **** 0.41
5248 O 35.294395558964915 8.032428348311628 12.33898708580936 O 0.0 **** -0.82
5249 H 36.116430482248916 7.835266117999085 12.912035339128083 H 0.0 **** 0.41
5250 H 34.39655510236684 7.7253318167663 12.759992829321712 H 0.0 **** 0.41
5251 O 48.86723766439314 25.62462709244529 11.591906916425772 O 0.0 **** -0.82
5252 H 48.4867975658734 26.53660165314176 11.782097798425736 H 0.0 **** 0.41
5253 H 49.5842892280216 25.4962045059667 12.24684572843927 H 0.0 **** 0.41
5254 O 8.260846712561097 0.9793600836200806 43.50231953273449 O 0.0 **** -0.82
5255 H 7.798607478883105 0.003221746722879004 43.495152328630695 H 0.0 **** 0.41
5256 H 9.152293991005207 0.7112695531066728 43.966042483811414 H 0.0 **** 0.41
5257 O 7.078540427610754 20.167100082575956 24.687293119805744 O 0.0 **** -0.82
5258 H 6.863023256582217 21.02971553432775 24.15884950237153 H 0.0 **** 0.41
5259 H 7.968308981272564 20.26409345244099 25.06540710440276 H 0.0 **** 0.41
5260 O 20.6373826311179 49.09912035415752 18.083439898904828 O 0.0 **** -0.82
5261 H 21.01701568260457 48.29395469547385 18.608766635933343 H 0.0 **** 0.41
5262 H 20.267893786998062 48.671114765152254 17.208235393342576 H 0.0 **** 0.41
5263 O 21.832821049580975 9.928853166724416 22.238755910892003 O 0.0 **** -0.82
5264 H 22.13854209415647 10.647323904795044 21.55990013329127 H 0.0 **** 0.41
5265 H 21.46229328882505 10.409154614453946 23.07620890151786 H 0.0 **** 0.41
5266 O 39.53702831642229 49.856926441401804 27.131941628103103 O 0.0 **** -0.82
5267 H 39.618691743428734 49.22448495636856 26.30643020731233 H 0.0 **** 0.41
5268 H 40.246232805594865 50.62821820986475 27.080048481268825 H 0.0 **** 0.41
5269 O 28.98470121876714 30.8795318655841 46.99614804758705 O 0.0 **** -0.82
5270 H 28.077464571042157 30.495260489482916 47.04390753625831 H 0.0 **** 0.41
5271 H 29.440716503643742 30.266235256412884 46.30271265875053 H 0.0 **** 0.41
5272 O 19.213576277008357 15.67470802784148 30.65721407131302 O 0.0 **** -0.82
5273 H 18.571505201748412 15.939288542622728 31.439236608125242 H 0.0 **** 0.41
5274 H 19.451139706131315 14.729226419000698 30.972712780159235 H 0.0 **** 0.41
5275 O 18.32377893276906 16.36645532654157 13.883572183076128 O 0.0 **** -0.82
5276 H 17.69442787566841 16.280615167156967 13.086284039764946 H 0.0 **** 0.41
5277 H 19.173379008588995 15.834113659468215 13.711210095560176 H 0.0 **** 0.41
5278 O 36.03097165107387 27.57438571883702 30.499180634647036 O 0.0 **** -0.82
5279 H 36.86734793713884 28.087191905513464 30.22931368265852 H 0.0 **** 0.41
5280 H 36.058889956273724 27.62110452977545 31.506717246881546 H 0.0 **** 0.41
5281 O 40.88972072579668 42.74327104133289 18.84404469687604 O 0.0 **** -0.82
5282 H 40.62002755194974 43.21811175019205 19.736956109890826 H 0.0 **** 0.41
5283 H 40.0220179950981 42.66678782173869 18.28196311263448 H 0.0 **** 0.41
5284 O 23.319675917994587 38.30384174689048 26.18645899780971 O 0.0 **** -0.82
5285 H 22.898211353079958 37.557283689214955 25.722806011349903 H 0.0 **** 0.41
5286 H 22.945392077081436 39.167565473005574 25.856831063677916 H 0.0 **** 0.41
5287 O 24.784437356568844 37.64764388412943 5.800533344718417 O 0.0 **** -0.82
5288 H 25.381697342148634 36.87700782656307 5.6384654941035635 H 0.0 **** 0.41
5289 H 24.25831038970212 37.36231893374099 6.643570928525342 H 0.0 **** 0.41
5290 O 18.363184191757128 12.250163799761886 23.891094628559518 O 0.0 **** -0.82
5291 H 19.16672378939349 11.675319674936503 24.185187828184944 H 0.0 **** 0.41
5292 H 17.547659270171568 11.713723002794097 24.165217834641425 H 0.0 **** 0.41
5293 O 25.87048245272971 12.986433102211725 36.87791741892516 O 0.0 **** -0.82
5294 H 26.858537499783232 12.809135028338014 36.756603450798444 H 0.0 **** 0.41
5295 H 25.488105547377316 12.015060951420859 36.899369985850896 H 0.0 **** 0.41
5296 O 40.45046387571328 14.168241868605605 42.158574500913325 O 0.0 **** -0.82
5297 H 39.66968938197869 13.56724204864694 42.54885579715923 H 0.0 **** 0.41
5298 H 40.29799853759137 15.081392461689944 42.46681924159507 H 0.0 **** 0.41
5299 O 40.533134292946485 5.57170186990538 38.50031582005504 O 0.0 **** -0.82
5300 H 41.26092582189388 6.186835374145655 38.17896044084501 H 0.0 **** 0.41
5301 H 39.80624148893014 6.147705008699873 38.761054160450975 H 0.0 **** 0.41
5302 O 18.809263952930507 6.8901552704186315 34.655877072164174 O 0.0 **** -0.82
5303 H 18.135468454218397 7.007130852141977 33.93407789252964 H 0.0 **** 0.41
5304 H 19.40207658301611 6.101243695381278 34.419424481196444 H 0.0 **** 0.41
5305 O 18.668513844542776 26.07863880879188 8.437895656551426 O 0.0 **** -0.82
5306 H 18.522759412182765 26.73379327742106 9.216529807396228 H 0.0 **** 0.41
5307 H 19.557788563763168 26.298228529914972 8.107120859189301 H 0.0 **** 0.41
5308 O 41.30382095070406 14.108247053970837 38.85233403058691 O 0.0 **** -0.82
5309 H 41.87129705157981 13.930220407045143 39.685473168994804 H 0.0 **** 0.41
5310 H 41.678470760489795 15.004065135262627 38.522279506328644 H 0.0 **** 0.41
5311 O 24.72444954865088 35.924841093977925 10.37535660578071 O 0.0 **** -0.82
5312 H 25.589592502418668 36.381801951739064 10.0000334796311 H 0.0 **** 0.41
5313 H 24.131010456498103 36.663981152156936 10.79820885217545 H 0.0 **** 0.41
5314 O 20.57978661433423 44.58180508126147 27.671486051901326 O 0.0 **** -0.82
5315 H 20.254554138520618 44.36624475100984 26.713297965618835 H 0.0 **** 0.41
5316 H 21.304045312927613 45.28791085631413 27.736966894362553 H 0.0 **** 0.41
5317 O 22.348967665210385 27.453087124770935 25.97466077253467 O 0.0 **** -0.82
5318 H 22.079302499645593 28.152035183240102 25.23902014715074 H 0.0 **** 0.41
5319 H 21.851863458807227 27.88677705646827 26.739316422702192 H 0.0 **** 0.41
5320 O 40.042522334285216 40.37771938108264 6.944001626262576 O 0.0 **** -0.82
5321 H 39.15594626946163 40.673862089090846 6.910185237532346 H 0.0 **** 0.41
5322 H 40.172873039548335 39.66949137783552 6.194292383575721 H 0.0 **** 0.41
5323 O 33.054482168552816 45.27669850683817 6.5063887005691114 O 0.0 **** -0.82
5324 H 33.96451343585291 45.69719081555207 6.707505583203684 H 0.0 **** 0.41
5325 H 32.38258470992528 46.03543169415263 6.492745779549985 H 0.0 **** 0.41
5326 O 42.391661067719966 3.121638500735692 40.72423753272983 O 0.0 **** -0.82
5327 H 42.88899564791137 3.890313612063231 40.30015971470152 H 0.0 **** 0.41
5328 H 41.92410278974011 2.692299318368832 39.93108386183224 H 0.0 **** 0.41
5329 O 11.822664117638478 44.97653067168354 48.06637315236847 O 0.0 **** -0.82
5330 H 11.345752411753281 45.86367733892285 47.83186070581809 H 0.0 **** 0.41
5331 H 12.824988971262853 45.08234243482374 47.84836497376174 H 0.0 **** 0.41
5332 O 20.516406949350994 18.803042103867465 24.3502441129899 O 0.0 **** -0.82
5333 H 20.405720986004056 18.860539691628993 23.341745711446453 H 0.0 **** 0.41
5334 H 19.746225253249598 18.298356225334974 24.81797940185529 H 0.0 **** 0.41
5335 O 14.520041904872398 21.90195098805397 30.21843353071765 O 0.0 **** -0.82
5336 H 14.81176766845296 22.87288317176717 30.017667912546916 H 0.0 **** 0.41
5337 H 14.125009784386783 22.02215440445667 31.178188056990486 H 0.0 **** 0.41
5338 O 36.97250458569219 42.38739687379745 33.776807520587624 O 0.0 **** -0.82
5339 H 36.602765685297676 42.183837406610685 32.836104069589055 H 0.0 **** 0.41
5340 H 37.665465252769124 41.6343836961835 33.999592014753745 H 0.0 **** 0.41
5341 O 24.275872443274388 11.781212910144125 46.77436617881193 O 0.0 **** -0.82
5342 H 25.115523607503732 12.2557643933271 46.54256405413939 H 0.0 **** 0.41
5343 H 24.326304576957988 11.426875873436336 47.736184251738024 H 0.0 **** 0.41
5344 O 35.13344683483916 21.35967113419281 44.7657391488597 O 0.0 **** -0.82
5345 H 35.53903274847532 20.824779914079542 43.93514126638409 H 0.0 **** 0.41
5346 H 34.143749932338295 21.661569973511092 44.58316424393858 H 0.0 **** 0.41
5347 O 28.793628981393795 49.81826312612967 30.669978069487723 O 0.0 **** -0.82
5348 H 28.672718686732964 50.12085531174482 29.750584810233967 H 0.0 **** 0.41
5349 H 29.444100920139434 50.40874169287822 31.19170603924599 H 0.0 **** 0.41
5350 O 41.445987400226606 47.781029277522435 31.07727219341668 O 0.0 **** -0.82
5351 H 40.684274366277094 47.2870786004703 31.461182541972274 H 0.0 **** 0.41
5352 H 41.974749560379564 48.182008322818355 31.88561879008167 H 0.0 **** 0.41
5353 O 24.666095202143197 9.518217953990055 19.55915735968827 O 0.0 **** -0.82
5354 H 25.089481747212673 10.139467118003969 18.91838144016724 H 0.0 **** 0.41
5355 H 25.358373750407864 9.390672098068826 20.275447186883117 H 0.0 **** 0.41
5356 O 11.54507218319786 28.905541269605305 48.12213740116734 O 0.0 **** -0.82
5357 H 12.062792638153049 28.655515543919808 47.24516107644233 H 0.0 **** 0.41
5358 H 12.201044081864339 29.176525441087257 48.849434593491964 H 0.0 **** 0.41
5359 O 3.9831594539029425 15.338265489409643 28.59327856268061 O 0.0 **** -0.82
5360 H 3.2547060228512805 14.781562761942924 28.987078272458504 H 0.0 **** 0.41
5361 H 4.324589710254941 16.083437477121098 29.258237500808804 H 0.0 **** 0.41
5362 O 49.22771331212919 49.03122136409635 0.973174615509329 O 0.0 **** -0.82
5363 H 48.75343585043389 49.90385163767559 1.2175711851078574 H 0.0 **** 0.41
5364 H 49.51467378444703 48.534164182406236 1.8087185227766938 H 0.0 **** 0.41
5365 O 17.413399220537258 2.148304697332482 39.16034494459685 O 0.0 **** -0.82
5366 H 16.879554170533396 3.00321545699561 39.23518937332349 H 0.0 **** 0.41
5367 H 18.391849469757858 2.438358143932519 39.212421189518864 H 0.0 **** 0.41
5368 O 40.23355779429135 30.690389382508627 37.74456609324647 O 0.0 **** -0.82
5369 H 40.99676264199431 30.063311294437227 37.772370510580735 H 0.0 **** 0.41
5370 H 39.95946821213349 30.90973819182895 38.67795615530679 H 0.0 **** 0.41
5371 O 12.642117442086409 37.77198914172159 8.707568109232023 O 0.0 **** -0.82
5372 H 12.650530647937074 36.85162491175745 9.097878163224104 H 0.0 **** 0.41
5373 H 12.710294441426555 37.62160914077972 7.739478297079882 H 0.0 **** 0.41
5374 O 1.4018515367778779 3.9554971562965378 35.36194083636392 O 0.0 **** -0.82
5375 H 1.909843773312443 4.371210718556938 34.58649391139245 H 0.0 **** 0.41
5376 H 2.0423194815887147 3.8550026766064107 36.15117718992122 H 0.0 **** 0.41
5377 O 40.09858531669381 25.77196107079156 2.3263486771886726 O 0.0 **** -0.82
5378 H 40.489038140786306 25.308160974409496 1.4943784136536191 H 0.0 **** 0.41
5379 H 39.18143191813215 26.045198771915025 1.924535266153798 H 0.0 **** 0.41
5380 O 9.352487977365065 2.9329470052071542 25.865241726650297 O 0.0 **** -0.82
5381 H 9.571769365724165 2.617427784531017 24.874798701747935 H 0.0 **** 0.41
5382 H 9.714562146109458 2.1990621380982986 26.470822106540712 H 0.0 **** 0.41
5383 O 0.770489300878517 12.02119892635495 44.4332097728164 O 0.0 **** -0.82
5384 H 1.639050143677931 12.354696894685594 43.9882450681687 H 0.0 **** 0.41
5385 H 0.07896619372158947 12.447315136992392 43.85836990737089 H 0.0 **** 0.41
5386 O 9.524172355700982 39.071976242629546 8.30524524943197 O 0.0 **** -0.82
5387 H 10.004105106757834 38.39521486088964 8.859107981061427 H 0.0 **** 0.41
5388 H 9.070942018346004 38.4942603575189 7.631676538528609 H 0.0 **** 0.41
5389 O 9.382148384675883 18.013622511643916 46.44904602789842 O 0.0 **** -0.82
5390 H 9.192208307039358 18.62093193923331 45.59982488561315 H 0.0 **** 0.41
5391 H 9.558835175841631 18.694903549681772 47.22607153545526 H 0.0 **** 0.41
5392 O 39.20561944338103 43.13938615000478 43.906180174698314 O 0.0 **** -0.82
5393 H 39.02649852071544 43.83545243134387 43.195522673792105 H 0.0 **** 0.41
5394 H 39.87884315764559 43.70656530428744 44.44703795976137 H 0.0 **** 0.41
5395 O 26.190363036645678 48.32329634799452 44.53478228633774 O 0.0 **** -0.82
5396 H 25.861297030046014 49.08252438416457 44.01795972048088 H 0.0 **** 0.41
5397 H 26.515908763574238 47.667051379870955 43.82361643961734 H 0.0 **** 0.41
5398 O 6.7815151919706445 29.574441462204636 32.818098254756265 O 0.0 **** -0.82
5399 H 6.324024753061488 30.030844885058915 33.65868566916703 H 0.0 **** 0.41
5400 H 7.566406943326064 30.197989381139585 32.5619219641286 H 0.0 **** 0.41
5401 O 32.3917107714587 21.175182581128013 44.234513616800534 O 0.0 **** -0.82
5402 H 32.11983541443475 20.225212465240407 44.433158958847024 H 0.0 **** 0.41
5403 H 31.66160850432516 21.83771990632228 44.631472182797125 H 0.0 **** 0.41
5404 O 6.263024676166659 4.422373369173711 45.67480574905877 O 0.0 **** -0.82
5405 H 6.222984400791895 3.59119109158686 46.24632714098696 H 0.0 **** 0.41
5406 H 5.746510958030592 5.152666863298699 46.1402048277378 H 0.0 **** 0.41
5407 O 49.907445813260075 2.85535419172205 14.742803390026957 O 0.0 **** -0.82
5408 H 50.8996856620151 2.795970856225942 14.970691213428493 H 0.0 **** 0.41
5409 H 49.813315621820706 3.778539791708347 14.34243509597366 H 0.0 **** 0.41
5410 O 49.75666262571447 37.61378480742354 30.701357971781704 O 0.0 **** -0.82
5411 H 49.2855006605064 38.465583397860016 30.39394444141839 H 0.0 **** 0.41
5412 H 50.623141036992116 37.92133684403447 31.172095056805432 H 0.0 **** 0.41
5413 O 16.598156930263855 28.206321700782578 24.199102170075225 O 0.0 **** -0.82
5414 H 16.703325585288944 29.14904272579348 24.486642085563773 H 0.0 **** 0.41
5415 H 17.083434841300054 27.83083159510221 25.042658297062744 H 0.0 **** 0.41
5416 O 0.24449498431432715 14.76918208297451 12.90416896265013 O 0.0 **** -0.82
5417 H -0.23773323995088447 14.493171006581974 13.797080595352014 H 0.0 **** 0.41
5418 H -0.40806574448996 14.545463846957674 12.189184425645813 H 0.0 **** 0.41
5419 O 23.94042503724762 39.12588492049377 48.014443625431944 O 0.0 **** -0.82
5420 H 23.26535752708982 39.06002026745318 47.24164924499752 H 0.0 **** 0.41
5421 H 24.646446164088655 38.456471468697586 47.712405345953755 H 0.0 **** 0.41
5422 O 26.869952327822148 41.13614052619206 24.71792727657312 O 0.0 **** -0.82
5423 H 27.877255221683853 41.00872246921447 24.817970395157705 H 0.0 **** 0.41
5424 H 26.593896056697105 42.03059297729639 25.175084425241618 H 0.0 **** 0.41
5425 O 3.178361775724685 3.341387546759141 44.05170627364851 O 0.0 **** -0.82
5426 H 2.3757938018232623 2.9811843012485553 44.573115027898915 H 0.0 **** 0.41
5427 H 4.002903822529996 2.7793913823064718 44.128284386316054 H 0.0 **** 0.41
5428 O 17.561113052829775 23.880895384016824 26.68523843727617 O 0.0 **** -0.82
5429 H 16.593004561668035 24.034311318339622 26.52566119389797 H 0.0 **** 0.41
5430 H 17.696676495144672 22.83682688601347 26.70308551765811 H 0.0 **** 0.41
5431 O 44.66167184292693 19.16302546746932 42.47271703080669 O 0.0 **** -0.82
5432 H 44.41903285032636 18.70170621052434 43.37384145375664 H 0.0 **** 0.41
5433 H 44.76951509461619 20.138030617726912 42.744291566823065 H 0.0 **** 0.41
5434 O 34.477861517493025 46.600275645801005 15.476879973251283 O 0.0 **** -0.82
5435 H 35.06886673955589 46.99193973753106 16.19904510678871 H 0.0 **** 0.41
5436 H 35.19800526292221 46.27420758554321 14.81482756233575 H 0.0 **** 0.41
5437 O 26.952846608614507 25.10474986002064 41.897767970044676 O 0.0 **** -0.82
5438 H 26.85267712406955 25.04732050787744 40.911063194241045 H 0.0 **** 0.41
5439 H 27.938245930821914 25.050754739700658 42.1359388376878 H 0.0 **** 0.41
5440 O 24.65088313028056 49.50819428140471 49.66864385341738 O 0.0 **** -0.82
5441 H 24.770591168051496 48.50681138257399 49.45574767161316 H 0.0 **** 0.41
5442 H 24.47669473158109 49.49737709105928 50.654658413878174 H 0.0 **** 0.41
5443 O 23.139041920174332 49.81175974344246 42.122224249263624 O 0.0 **** -0.82
5444 H 23.540510774410656 48.86645299991149 41.95683310211073 H 0.0 **** 0.41
5445 H 22.15306713120522 49.72678878094457 41.71215707264605 H 0.0 **** 0.41
5446 O 42.14816645552037 18.570830226875543 26.90964545903771 O 0.0 **** -0.82
5447 H 41.12531528212026 18.339445361370938 26.935313546216342 H 0.0 **** 0.41
5448 H 42.26662603023857 19.52018707246057 26.57786503903576 H 0.0 **** 0.41
5449 O 20.565348605806008 49.300412577821696 41.78418795933524 O 0.0 **** -0.82
5450 H 20.032657236723296 48.51362036212287 42.103360454275624 H 0.0 **** 0.41
5451 H 19.95985209674558 50.02233362886857 42.20759414544583 H 0.0 **** 0.41
5452 O 15.36441287379411 35.22239887916254 42.134912580816426 O 0.0 **** -0.82
5453 H 14.874852167312888 35.74695397246057 42.83143778648702 H 0.0 **** 0.41
5454 H 16.314174914349465 35.08808040536865 42.482033259512704 H 0.0 **** 0.41
5455 O 5.4469896055616385 7.446540270017984 5.044221200571083 O 0.0 **** -0.82
5456 H 6.300998649112017 7.420449807813625 4.5175553393918175 H 0.0 **** 0.41
5457 H 5.7023947354446305 7.01689380168343 5.9253866499099 H 0.0 **** 0.41
5458 O 29.340461655420963 11.659648918101198 5.232521001028715 O 0.0 **** -0.82
5459 H 30.20178078800037 11.09141650227349 5.042703533175683 H 0.0 **** 0.41
5460 H 29.131027497904054 11.797924998501898 6.181654727023407 H 0.0 **** 0.41
5461 O 11.996042253078166 11.339579684664159 29.401847623689683 O 0.0 **** -0.82
5462 H 12.080783894732525 10.861189564459764 30.276377234600396 H 0.0 **** 0.41
5463 H 10.984658599513592 11.565488488192855 29.167755669191557 H 0.0 **** 0.41
5464 O 44.88255767080555 24.374791734156734 36.071468843695165 O 0.0 **** -0.82
5465 H 45.889372396522965 24.609450025577505 36.059378487679574 H 0.0 **** 0.41
5466 H 44.888661840300124 23.460529553379416 35.593704169140665 H 0.0 **** 0.41
5467 O 26.267969788902608 0.11364531069780526 31.51922787167034 O 0.0 **** -0.82
5468 H 27.216867626927424 0.01010387099541532 31.189083732819043 H 0.0 **** 0.41
5469 H 25.840255496479873 -0.41696571016295536 30.764745281237555 H 0.0 **** 0.41
5470 O 44.7207697931391 35.750328229978884 10.739964876133133 O 0.0 **** -0.82
5471 H 43.805274440463116 35.71771505022032 11.217675032449506 H 0.0 **** 0.41
5472 H 44.67495356784989 35.084761936166466 9.98198544927857 H 0.0 **** 0.41
5473 O 40.001750892516974 6.8094137864042965 7.346518781276921 O 0.0 **** -0.82
5474 H 40.91599043472111 7.140026951962777 6.988417858149224 H 0.0 **** 0.41
5475 H 39.965868551615095 5.84125266419167 7.077918204072248 H 0.0 **** 0.41
5476 O 34.67971183279617 37.37326954762888 22.171238584894414 O 0.0 **** -0.82
5477 H 34.30446004263243 38.133624670526345 21.659222884273696 H 0.0 **** 0.41
5478 H 35.67230287705331 37.671941464911946 22.22871325352264 H 0.0 **** 0.41
5479 O 15.250247518035094 3.621937640872114 31.737653277597225 O 0.0 **** -0.82
5480 H 15.405452935233225 3.5906365871190284 30.74542792841606 H 0.0 **** 0.41
5481 H 14.296170324833625 3.3050805518792425 31.954516977333178 H 0.0 **** 0.41
5482 O 9.653442823968795 41.5068297532537 37.222531866381274 O 0.0 **** -0.82
5483 H 9.54777219483276 40.66703700770813 37.865101695740954 H 0.0 **** 0.41
5484 H 10.261806448955028 41.055961476412755 36.54155574156316 H 0.0 **** 0.41
5485 O 18.373796818781692 49.63931504927086 3.3407407063897723 O 0.0 **** -0.82
5486 H 18.033015064589712 49.00809011288455 2.6090423712115722 H 0.0 **** 0.41
5487 H 18.931999093997074 50.39722586117201 2.887657467708769 H 0.0 **** 0.41
5488 O 25.78687438770766 25.803636141642812 32.51753561538275 O 0.0 **** -0.82
5489 H 26.329635691376307 25.33408467221716 33.17007562559847 H 0.0 **** 0.41
5490 H 24.812130934532313 25.681975710178634 32.92766934336281 H 0.0 **** 0.41
5491 O 42.60028575310334 24.915444779799568 46.24061056436406 O 0.0 **** -0.82
5492 H 41.61611434184249 24.726108307222006 46.51212343064111 H 0.0 **** 0.41
5493 H 42.54434549094052 25.770982502208195 45.65926266828455 H 0.0 **** 0.41
5494 O 28.948369055300457 38.12095379939169 46.10420816958018 O 0.0 **** -0.82
5495 H 28.356589612407397 37.41317292420949 46.5386891086322 H 0.0 **** 0.41
5496 H 28.478678420810468 38.95446856050652 46.2996296794425 H 0.0 **** 0.41
5497 O 47.79867316566179 27.93951135986977 12.290446613002977 O 0.0 **** -0.82
5498 H 46.74913370840299 27.69601098652194 12.210713784638338 H 0.0 **** 0.41
5499 H 47.79605213647822 28.926017553658568 12.490482335374477 H 0.0 **** 0.41
5500 O 2.4471550275658074 10.79943546801971 22.035021858517716 O 0.0 **** -0.82
5501 H 2.948084727940096 10.1049928750214 21.499712920079208 H 0.0 **** 0.41
5502 H 2.0770886751879702 10.417583996567974 22.88417663742105 H 0.0 **** 0.41
5503 O 24.933670074992516 24.261501614790035 12.43193152798058 O 0.0 **** -0.82
5504 H 25.125672178707966 24.00339754194147 11.4374637288293 H 0.0 **** 0.41
5505 H 25.11280495128925 23.399870120892288 12.917548884710236 H 0.0 **** 0.41
5506 O 23.495030896198568 43.98450304669661 30.427182350589344 O 0.0 **** -0.82
5507 H 23.7591024742964 43.6425763923128 31.375774914643607 H 0.0 **** 0.41
5508 H 23.57355566037924 43.1439493205244 29.82715214835256 H 0.0 **** 0.41
5509 O 40.4976245161116 25.23204658420678 40.98965293814822 O 0.0 **** -0.82
5510 H 41.45976143983431 25.047025696583656 41.087693204668916 H 0.0 **** 0.41
5511 H 40.357275714906265 26.187480249371472 40.81371159060363 H 0.0 **** 0.41
5512 O 0.11044973054411145 41.51213423621138 17.31756225999182 O 0.0 **** -0.82
5513 H 0.5015037626139787 41.5733969635465 16.3542123565207 H 0.0 **** 0.41
5514 H -0.6248507656418951 42.19159041833285 17.23716375751975 H 0.0 **** 0.41
5515 O 18.762527507495875 19.495916469775437 48.105993586592724 O 0.0 **** -0.82
5516 H 19.221422210247184 18.675251467841008 47.703340365651066 H 0.0 **** 0.41
5517 H 17.789256343236957 19.162290479995022 47.92397876109476 H 0.0 **** 0.41
5518 O 39.753347359305096 28.558173814681847 44.70245331384884 O 0.0 **** -0.82
5519 H 39.231678263356784 27.92828707893367 44.10443041358932 H 0.0 **** 0.41
5520 H 39.22615042253554 29.46009569553387 44.720218945513274 H 0.0 **** 0.41
5521 O 6.93539009560088 49.63248686489663 17.81836385007408 O 0.0 **** -0.82
5522 H 7.85990273041066 49.99743582259833 17.91957690183905 H 0.0 **** 0.41
5523 H 6.348291315366794 50.25921002645542 17.327717012616347 H 0.0 **** 0.41
5524 O 29.629905693062973 8.033008528693909 21.8011956899305 O 0.0 **** -0.82
5525 H 29.468587366650528 8.022924373402713 20.80242056322573 H 0.0 **** 0.41
5526 H 29.257074664237244 8.97523277181516 22.049240677025885 H 0.0 **** 0.41
5527 O 8.404019249245984 36.87529227031732 2.1738571354462666 O 0.0 **** -0.82
5528 H 7.927313109200632 36.54133421844416 1.3432242408038348 H 0.0 **** 0.41
5529 H 7.9544270438382725 37.78482720555334 2.281065272947225 H 0.0 **** 0.41
5530 O 31.1534012934668 18.037266116888063 26.61598251500725 O 0.0 **** -0.82
5531 H 31.830765258055266 17.31746181029891 26.275004472051407 H 0.0 **** 0.41
5532 H 30.336650604770654 17.51093543418051 26.931319137642436 H 0.0 **** 0.41
5533 O 7.138624560743267 1.6217901868706903 28.471491425145512 O 0.0 **** -0.82
5534 H 6.765168303996681 2.575886362815126 28.237144335327145 H 0.0 **** 0.41
5535 H 8.110095944057363 1.605722367044926 28.568487188654256 H 0.0 **** 0.41
5536 O 33.52514622094898 19.668616014061058 30.113975761731833 O 0.0 **** -0.82
5537 H 33.78087966706708 18.811731729896167 30.581811067322302 H 0.0 **** 0.41
5538 H 33.144178530122964 20.31894897482283 30.827190065081815 H 0.0 **** 0.41
5539 O 7.008862053924116 34.82641970335487 8.723961515802657 O 0.0 **** -0.82
5540 H 7.875463961353385 35.38516366561872 8.745619622120998 H 0.0 **** 0.41
5541 H 7.149840853743266 34.045442557385584 9.378373941388176 H 0.0 **** 0.41
5542 O 19.622763624697622 7.0921602742461545 14.570110348027622 O 0.0 **** -0.82
5543 H 18.794308594526157 6.63937312797826 14.1995333524567 H 0.0 **** 0.41
5544 H 19.59708080499076 8.032832251287623 14.25881777563353 H 0.0 **** 0.41
5545 O 47.611588225000666 25.98930270026286 16.131303954318973 O 0.0 **** -0.82
5546 H 47.25839573236117 25.25996377064935 15.523946723897028 H 0.0 **** 0.41
5547 H 46.89624006529198 26.65446093240195 15.957327137299645 H 0.0 **** 0.41
5548 O 22.014294676225177 24.512099775692096 26.228863384482008 O 0.0 **** -0.82
5549 H 22.253753830229897 25.456932960905426 26.022583593179963 H 0.0 **** 0.41
5550 H 22.347248864900394 24.015896236463828 25.422857511419323 H 0.0 **** 0.41
5551 O 32.94758437121094 38.53768305774803 26.186120293891918 O 0.0 **** -0.82
5552 H 33.65123367091071 38.95430493932173 25.583820946055507 H 0.0 **** 0.41
5553 H 32.281562054726884 39.311655981815434 26.289946741771203 H 0.0 **** 0.41
5554 O 17.18429132267427 5.42050117636397 26.96034649417995 O 0.0 **** -0.82
5555 H 17.195596465525128 6.375895378283346 27.23602952348028 H 0.0 **** 0.41
5556 H 16.221483191528947 5.144283593236793 26.68581265109232 H 0.0 **** 0.41
5557 O 14.506123240721259 8.234862811222634 27.92975387511015 O 0.0 **** -0.82
5558 H 14.548497941126465 9.207127825863658 27.987103904659207 H 0.0 **** 0.41
5559 H 14.019475568013236 8.077983930121064 27.062275660054596 H 0.0 **** 0.41
5560 O 13.200720480541246 44.003323823657766 19.496794999598126 O 0.0 **** -0.82
5561 H 12.351907682732277 44.48972907393644 19.69487413810482 H 0.0 **** 0.41
5562 H 13.012105623752506 43.30008626625394 18.850122587721387 H 0.0 **** 0.41
5563 O 39.85132793215474 23.075467749463336 33.91307387978215 O 0.0 **** -0.82
5564 H 40.33839351279966 23.20993118816113 34.76855823720596 H 0.0 **** 0.41
5565 H 40.17537795352223 22.16316013787453 33.55597590422575 H 0.0 **** 0.41
5566 O 36.098873128896 22.67753857411799 35.17924121267658 O 0.0 **** -0.82
5567 H 36.68134637186016 22.538692612030303 34.346503140094555 H 0.0 **** 0.41
5568 H 35.619984066015704 23.563581149153137 34.954074844623555 H 0.0 **** 0.41
5569 O 37.11708022585975 2.2241129420666716 19.58156211205047 O 0.0 **** -0.82
5570 H 38.00222575919562 1.9815858121543812 19.975481493491614 H 0.0 **** 0.41
5571 H 36.54562262569367 2.258511598323724 20.434585964625338 H 0.0 **** 0.41
5572 O 2.8025861241315324 5.9553424268271495 43.80895794136022 O 0.0 **** -0.82
5573 H 2.9562001707236227 4.939044952523095 43.93839259193557 H 0.0 **** 0.41
5574 H 3.3145341683310994 6.412949658835778 44.542508412449905 H 0.0 **** 0.41
5575 O 33.181484214688446 39.08140577430049 36.090833710021286 O 0.0 **** -0.82
5576 H 33.36115019593938 38.55458218924727 35.24551386907379 H 0.0 **** 0.41
5577 H 34.029957873000335 38.95441811265141 36.60350837453806 H 0.0 **** 0.41
5578 O 27.711277265565016 6.368598650126708 39.084427167958154 O 0.0 **** -0.82
5579 H 27.23924383871352 7.175284287134411 39.534021738390415 H 0.0 **** 0.41
5580 H 27.337553309445852 6.281028340200757 38.20936435474737 H 0.0 **** 0.41
5581 O 18.215055813203733 13.770805128087309 47.06723090273086 O 0.0 **** -0.82
5582 H 18.276564566206773 14.31367369609901 47.945415037160934 H 0.0 **** 0.41
5583 H 17.355096937937233 13.15195073308957 47.223569173376035 H 0.0 **** 0.41
5584 O 14.305844912727252 19.130129358345016 45.099608514191104 O 0.0 **** -0.82
5585 H 14.363786328480494 19.670777455301973 45.88627302274366 H 0.0 **** 0.41
5586 H 14.619951961064254 19.803630099765115 44.38018061218827 H 0.0 **** 0.41
5587 O 20.31160044431961 45.55805601456617 34.409415488029815 O 0.0 **** -0.82
5588 H 20.209535018602452 45.91484144696303 35.3579286296006 H 0.0 **** 0.41
5589 H 21.261426580596208 45.20476712444369 34.45896327328488 H 0.0 **** 0.41
5590 O 31.1467999622269 31.09371151910372 37.828096913087094 O 0.0 **** -0.82
5591 H 30.833580209524257 31.331911126837337 38.70594889261831 H 0.0 **** 0.41
5592 H 31.82296535636544 31.842443627795006 37.613947354058105 H 0.0 **** 0.41
5593 O 19.016707634532217 11.701575006396112 14.568238441843468 O 0.0 **** -0.82
5594 H 19.54037908779631 10.948211286772803 14.192356209420774 H 0.0 **** 0.41
5595 H 18.02527134114595 11.366343540565822 14.47821185229161 H 0.0 **** 0.41
5596 O 40.59745001156653 29.539628063606408 1.3722383758942627 O 0.0 **** -0.82
5597 H 40.89987961442344 29.382339847680853 0.38783187361444504 H 0.0 **** 0.41
5598 H 39.769396879158165 28.98227544768204 1.5270912811236528 H 0.0 **** 0.41
5599 O 43.20886671127342 14.688738614153475 44.81524986768419 O 0.0 **** -0.82
5600 H 44.07887639902702 14.678630488379653 44.211641270633436 H 0.0 **** 0.41
5601 H 43.507291974693366 14.282806931485284 45.718849501979065 H 0.0 **** 0.41
5602 O 33.59116816741862 32.68112697816969 48.38066780943367 O 0.0 **** -0.82
5603 H 32.71954793773078 32.172219281634995 48.47477404335102 H 0.0 **** 0.41
5604 H 34.121702118302366 32.39147782094326 49.14840067749435 H 0.0 **** 0.41
5605 O 39.61129552784593 46.95524985764807 25.94719918840459 O 0.0 **** -0.82
5606 H 40.12587407814909 46.98246590690829 26.792713670060554 H 0.0 **** 0.41
5607 H 40.07348297695713 46.2108611711696 25.438151765333036 H 0.0 **** 0.41
5608 O 24.013049910435853 42.91549694157291 32.81513510126598 O 0.0 **** -0.82
5609 H 23.114715942671076 42.380087134336065 32.485365288622205 H 0.0 **** 0.41
5610 H 24.66402120778425 42.24515132459433 33.22951195723417 H 0.0 **** 0.41
5611 O 18.10242996457214 30.43189031282114 2.426127060708718 O 0.0 **** -0.82
5612 H 18.539818245868645 30.62910959208261 3.3392880114493044 H 0.0 **** 0.41
5613 H 17.841260482065763 31.3170020552937 2.114267773452558 H 0.0 **** 0.41
5614 O 32.577125056757374 41.25197827054221 15.591621713148902 O 0.0 **** -0.82
5615 H 32.6436957339628 40.32139076231895 15.256428188730101 H 0.0 **** 0.41
5616 H 32.061740119239474 41.686138029477114 14.877316975361394 H 0.0 **** 0.41
5617 O 8.146690695152808 2.9211990821009124 2.4198817500524896 O 0.0 **** -0.82
5618 H 9.125716174059159 2.8251210872968286 2.6056387304504582 H 0.0 **** 0.41
5619 H 8.253512704074774 3.4274797149147744 1.5139156578174706 H 0.0 **** 0.41
5620 O 37.496404160476885 1.4450062945796276 49.354423631624115 O 0.0 **** -0.82
5621 H 36.61327659119031 1.7938598028887824 49.70599941413534 H 0.0 **** 0.41
5622 H 38.21293088254035 2.053221768201638 49.77170925625051 H 0.0 **** 0.41
5623 O 39.65393069709627 13.712315455999928 36.76463361508829 O 0.0 **** -0.82
5624 H 40.07385684662465 13.728521596222649 37.66470553380755 H 0.0 **** 0.41
5625 H 40.2609985732011 13.04971190618216 36.236742248750325 H 0.0 **** 0.41
5626 O 15.479548748983452 30.678769323202527 29.15033199053231 O 0.0 **** -0.82
5627 H 15.247353144193756 29.83407198689615 29.684256483477125 H 0.0 **** 0.41
5628 H 16.30435239646406 30.37257082131599 28.642991905701752 H 0.0 **** 0.41
5629 O 0.7689366042034328 30.01236973255525 23.013521155638557 O 0.0 **** -0.82
5630 H -0.09251124051581172 29.74490643849767 22.496674011887436 H 0.0 **** 0.41
5631 H 1.0886459966271074 29.1251207369946 23.479336858383675 H 0.0 **** 0.41
5632 O 16.446581365316746 48.99437529792341 16.441874455827215 O 0.0 **** -0.82
5633 H 17.00873649419208 48.41902079647612 17.076145342851643 H 0.0 **** 0.41
5634 H 16.97154690571115 49.096693982790555 15.593671397463224 H 0.0 **** 0.41
5635 O 29.66599003650096 38.9066728650069 38.92564619971559 O 0.0 **** -0.82
5636 H 29.95895560404122 38.50033781926294 38.01010428045394 H 0.0 **** 0.41
5637 H 30.410885594716067 39.6221738296147 39.06279073142992 H 0.0 **** 0.41
5638 O 25.362390008904697 13.013183092673765 3.2355890682383346 O 0.0 **** -0.82
5639 H 25.975653573501383 13.439693463209206 2.5275041730372894 H 0.0 **** 0.41
5640 H 24.600840598902277 13.597991784616415 3.17625079935879 H 0.0 **** 0.41
5641 O 39.445017535282396 35.54418004995759 49.53741751543682 O 0.0 **** -0.82
5642 H 38.872643408681256 35.81589382388051 50.30258891516992 H 0.0 **** 0.41
5643 H 40.322789859745896 36.04089058892911 49.53911258978463 H 0.0 **** 0.41
5644 O 19.96632859838533 44.80515287561501 8.418746612175202 O 0.0 **** -0.82
5645 H 20.439933879956726 45.50478597458245 8.981277887002118 H 0.0 **** 0.41
5646 H 19.570059027052224 45.30655647159656 7.6054810259547825 H 0.0 **** 0.41
5647 O 32.173615728836204 19.78899591833758 5.052374575805189 O 0.0 **** -0.82
5648 H 33.124756220976515 19.573105018718856 4.995045662159829 H 0.0 **** 0.41
5649 H 31.974612685254517 20.313096345763718 4.141796288968045 H 0.0 **** 0.41
5650 O 20.46952904396679 17.797428515661313 1.8592939627816238 O 0.0 **** -0.82
5651 H 20.620674283896246 18.450320474006634 2.6131984474622603 H 0.0 **** 0.41
5652 H 19.552068575773934 18.190694432472682 1.5695889643039473 H 0.0 **** 0.41
5653 O 45.67628132059687 33.66722437806082 45.109074924822345 O 0.0 **** -0.82
5654 H 46.63310566506048 33.34338780439938 45.21546707202733 H 0.0 **** 0.41
5655 H 45.10323057555107 32.879435227597405 45.37152379894248 H 0.0 **** 0.41
5656 O 47.07036895615054 1.3495981642064763 29.927728396502644 O 0.0 **** -0.82
5657 H 48.081791384029955 1.196172016830701 29.67176566449504 H 0.0 **** 0.41
5658 H 47.14112749643971 1.3411906748428706 30.9257474033129 H 0.0 **** 0.41
5659 O 33.061183970624356 44.572423683216044 3.860744920612774 O 0.0 **** -0.82
5660 H 33.139389250614244 44.85199582554461 4.881525122989075 H 0.0 **** 0.41
5661 H 34.01712995148336 44.671089448805176 3.6518084599124307 H 0.0 **** 0.41
5662 O 10.916556268659548 49.89929868217229 19.151327183912954 O 0.0 **** -0.82
5663 H 11.352074245845373 49.29552460313731 19.806785051625823 H 0.0 **** 0.41
5664 H 10.174940701997663 50.37895612282726 19.67651711997584 H 0.0 **** 0.41
5665 O 11.00411663910458 32.68724527884126 41.19240135431297 O 0.0 **** -0.82
5666 H 11.495915990228447 31.8196633382871 40.94895800267536 H 0.0 **** 0.41
5667 H 10.318643566267099 32.304643924066376 41.84875202199919 H 0.0 **** 0.41
5668 O 10.156098442800989 12.997983936054577 9.729724292284892 O 0.0 **** -0.82
5669 H 9.44966229577171 12.826556308061715 8.989081303605218 H 0.0 **** 0.41
5670 H 10.984855027100082 12.513250526038508 9.301250573929188 H 0.0 **** 0.41
5671 O 30.924787309548716 21.40841033169617 0.44117748843047805 O 0.0 **** -0.82
5672 H 30.020054083395323 21.00758524176332 0.2927464551093099 H 0.0 **** 0.41
5673 H 30.77127467480876 22.348592695839763 0.05440465251437843 H 0.0 **** 0.41
5674 O 36.73411523502655 0.15428794433963175 27.49235237432123 O 0.0 **** -0.82
5675 H 36.54229495639985 1.2007508679817998 27.505812706756828 H 0.0 **** 0.41
5676 H 37.725315382242755 0.020720584546353393 27.43939898361299 H 0.0 **** 0.41
5677 O 46.37999634656165 21.6067269167052 0.6154881560686519 O 0.0 **** -0.82
5678 H 46.5977381568813 21.35274847734091 1.5334483986879237 H 0.0 **** 0.41
5679 H 47.27155886263169 21.70383939579746 0.18954120751548698 H 0.0 **** 0.41
5680 O 26.862524847683645 32.94047885388011 41.2292587974084 O 0.0 **** -0.82
5681 H 25.929203587371646 33.21486525234089 41.09487448410242 H 0.0 **** 0.41
5682 H 27.512606435206564 33.67396450420551 40.9582594100705 H 0.0 **** 0.41
5683 O 17.515903937428085 32.81749924070401 1.444147563221037 O 0.0 **** -0.82
5684 H 17.424178882111644 32.9803538884436 0.41197463616712326 H 0.0 **** 0.41
5685 H 18.237947641132905 33.49028971848685 1.7194368252298418 H 0.0 **** 0.41
5686 O 48.3920196064396 40.97215006726086 23.338078964811576 O 0.0 **** -0.82
5687 H 47.42385635806131 40.958753142433416 23.109985348590378 H 0.0 **** 0.41
5688 H 48.89648343252586 41.1596067562513 22.43921998192179 H 0.0 **** 0.41
5689 O 48.08534262185853 30.861780387091947 18.313594060701174 O 0.0 **** -0.82
5690 H 47.44203540324329 30.644815709135422 19.118981396165402 H 0.0 **** 0.41
5691 H 48.27577763574308 29.897529103827356 17.96127932979793 H 0.0 **** 0.41
5692 O 35.04767718268243 15.297972264628184 7.1111949883976555 O 0.0 **** -0.82
5693 H 34.2888896120145 14.816492508782904 6.598664167786773 H 0.0 **** 0.41
5694 H 34.53652794511506 15.87184123447305 7.76032803151003 H 0.0 **** 0.41
5695 O 45.18643303305372 29.219046983963068 34.5926072793934 O 0.0 **** -0.82
5696 H 44.751996512164574 28.341687831645217 34.922475496044065 H 0.0 **** 0.41
5697 H 46.153784127239845 28.880386676448023 34.47445679801263 H 0.0 **** 0.41
5698 O 35.527900678966674 45.520521645585546 39.80296538384136 O 0.0 **** -0.82
5699 H 34.98947471917895 46.3114360569112 39.96655997963607 H 0.0 **** 0.41
5700 H 36.13139272822482 45.740140455861244 39.06461561691836 H 0.0 **** 0.41
5701 O 23.492956543365725 14.04772700892616 32.1276250930494 O 0.0 **** -0.82
5702 H 23.39269120595484 13.298632388396172 31.49598875332342 H 0.0 **** 0.41
5703 H 22.833283991280144 13.789827243610361 32.87598282799317 H 0.0 **** 0.41
5704 O 31.057915121201077 30.84573721998228 25.19483693051385 O 0.0 **** -0.82
5705 H 30.12750576382261 30.40057650703059 25.0632048908917 H 0.0 **** 0.41
5706 H 31.161786082125975 31.257767595756405 24.27354704339515 H 0.0 **** 0.41
5707 O 32.14589645792495 22.54384190277651 37.35074634959613 O 0.0 **** -0.82
5708 H 31.542027264090713 21.82563505170814 36.99521125242793 H 0.0 **** 0.41
5709 H 31.778814347850613 22.61510191644738 38.306541751747154 H 0.0 **** 0.41
5710 O 34.45437176719329 28.577418179878695 45.40713420766971 O 0.0 **** -0.82
5711 H 33.57237214106839 28.10946057774819 45.713287602551006 H 0.0 **** 0.41
5712 H 34.16331004738435 29.53000585409194 45.25216398176822 H 0.0 **** 0.41
5713 O 28.993839336013703 16.32596729757111 27.425953321010546 O 0.0 **** -0.82
5714 H 29.70561441698555 15.686938732600638 27.71227480918803 H 0.0 **** 0.41
5715 H 28.429762543455585 15.729626415094435 26.85665404012474 H 0.0 **** 0.41
5716 O 19.05194933325734 30.05283913461263 7.113855962207389 O 0.0 **** -0.82
5717 H 18.499911557077198 30.326456478168218 6.325609335159695 H 0.0 **** 0.41
5718 H 19.917067233635038 30.606494050920016 7.060199001309424 H 0.0 **** 0.41
5719 O 43.44975938868813 16.961778721497137 17.59818359920007 O 0.0 **** -0.82
5720 H 42.80903366160018 16.474652187986784 18.286594434406496 H 0.0 **** 0.41
5721 H 43.08907821241258 17.888433212761036 17.631958990796946 H 0.0 **** 0.41
5722 O 7.787236427811742 1.676008208168689 21.924325490243127 O 0.0 **** -0.82
5723 H 8.073685359442614 0.750288906716392 21.710083512283383 H 0.0 **** 0.41
5724 H 6.7563467827773565 1.6407575614204646 21.939961897721666 H 0.0 **** 0.41
5725 O 25.14582212893116 21.804622288599372 44.617988764218 O 0.0 **** -0.82
5726 H 25.228151239832528 22.814466543296493 44.60737065179121 H 0.0 **** 0.41
5727 H 26.037347623473305 21.46481180746444 45.14757881551337 H 0.0 **** 0.41
5728 O 47.207156373840384 19.046529669987667 15.73571125212845 O 0.0 **** -0.82
5729 H 47.05989658703585 18.324314547344667 16.43392070512624 H 0.0 **** 0.41
5730 H 46.27637867135394 19.469076954334458 15.54058741723733 H 0.0 **** 0.41
5731 O 23.555461686409785 26.431010639933284 13.087166413712652 O 0.0 **** -0.82
5732 H 24.223455809374656 25.645507991932007 12.882249800140698 H 0.0 **** 0.41
5733 H 22.66588802032104 25.944402842819713 13.093932122147848 H 0.0 **** 0.41
5734 O 45.64493844099668 4.17588228347702 2.821818401298202 O 0.0 **** -0.82
5735 H 45.02661980334293 3.3985199286886805 2.812644824402824 H 0.0 **** 0.41
5736 H 45.844520721098704 4.17907321370921 1.8196597855590184 H 0.0 **** 0.41
5737 O 23.591158679442444 25.84906434947179 21.60785996750211 O 0.0 **** -0.82
5738 H 23.816020014786357 25.062048503531802 21.06029521187277 H 0.0 **** 0.41
5739 H 23.16733970130195 25.35276671122734 22.429366885183743 H 0.0 **** 0.41
5740 O 25.378060269197526 36.45904139436035 25.896957320772948 O 0.0 **** -0.82
5741 H 24.654903143396435 37.21065533245984 25.958917056115286 H 0.0 **** 0.41
5742 H 24.86651231891501 35.5703166379654 26.09439187390461 H 0.0 **** 0.41
5743 O 47.104407193007056 9.84053275358285 19.513270429293552 O 0.0 **** -0.82
5744 H 47.56469275885997 10.617837753423244 19.048760724306685 H 0.0 **** 0.41
5745 H 46.583518180136785 10.295867226330627 20.27744694417078 H 0.0 **** 0.41
5746 O 32.35324465696421 45.75631530798741 19.626017043192235 O 0.0 **** -0.82
5747 H 32.185830094247486 45.46356892367909 18.63259801367039 H 0.0 **** 0.41
5748 H 31.469271527996128 45.82656237321675 20.093688894580154 H 0.0 **** 0.41
5749 O 30.353330468586876 35.27730926542658 49.717839968416776 O 0.0 **** -0.82
5750 H 31.148175776728017 34.7288589744586 49.86265819450178 H 0.0 **** 0.41
5751 H 30.389237678043813 35.48659376033915 48.72836548803785 H 0.0 **** 0.41
5752 O 31.7069385114736 3.7100062006424084 46.179809224366146 O 0.0 **** -0.82
5753 H 32.462615775149445 3.0863715650896286 46.59665835637445 H 0.0 **** 0.41
5754 H 31.333057545681353 3.1837051033627852 45.40022560336578 H 0.0 **** 0.41
5755 O 30.140443420146312 24.597066847033275 1.099155419217034 O 0.0 **** -0.82
5756 H 29.8265567771124 23.862918639127116 1.7560742924969759 H 0.0 **** 0.41
5757 H 29.358979340572134 25.259859696053827 1.043601180031061 H 0.0 **** 0.41
5758 O 26.533330142343413 11.765493066182259 32.095911781385 O 0.0 **** -0.82
5759 H 25.551901209664784 11.592987862425502 32.06606613485027 H 0.0 **** 0.41
5760 H 26.869469180316074 11.586736412828827 33.062243000003285 H 0.0 **** 0.41
5761 O 18.675610882460774 14.145627327073035 27.26753235503944 O 0.0 **** -0.82
5762 H 19.314981273826135 13.414659918389004 26.929123165492896 H 0.0 **** 0.41
5763 H 19.40093408671686 14.740074947654817 27.57252902934435 H 0.0 **** 0.41
5764 O 19.190906888592416 4.551212329570146 11.394742395976698 O 0.0 **** -0.82
5765 H 20.184038216817893 4.776245978050024 11.480455882669549 H 0.0 **** 0.41
5766 H 18.67001704475062 4.916432249074333 12.239018020912017 H 0.0 **** 0.41
5767 O 29.6210525610758 48.98814609035743 24.07699706003123 O 0.0 **** -0.82
5768 H 29.413864687203446 49.943306322773466 24.382071639439967 H 0.0 **** 0.41
5769 H 30.57887227344627 48.966100473550085 23.750919991471168 H 0.0 **** 0.41
5770 O 49.60640880668525 18.400395561480735 7.394720742983439 O 0.0 **** -0.82
5771 H 49.11026085456821 18.94964431892322 8.08056474080255 H 0.0 **** 0.41
5772 H 48.90338808060034 18.24879704539208 6.6831234018271495 H 0.0 **** 0.41
5773 O 29.11633167933654 45.49835892089254 5.901513238285591 O 0.0 **** -0.82
5774 H 28.68770488280125 45.61108668312544 4.991442541341294 H 0.0 **** 0.41
5775 H 29.73263143341182 46.27472835996345 5.921685556010045 H 0.0 **** 0.41
5776 O 48.330404073504724 48.17568417191864 21.77216232457624 O 0.0 **** -0.82
5777 H 48.15750739652486 47.97958778081832 20.787597541702183 H 0.0 **** 0.41
5778 H 48.79638182163772 49.045950819042076 21.635674465619466 H 0.0 **** 0.41
5779 O 2.5119431540195905 15.53557505006708 45.20454215749473 O 0.0 **** -0.82
5780 H 2.987757699596415 14.691502196537542 44.8597981306305 H 0.0 **** 0.41
5781 H 1.5232321030575804 15.504863331048057 45.070340710967045 H 0.0 **** 0.41
5782 O 22.379017484306917 1.4268720733057023 46.26819304873694 O 0.0 **** -0.82
5783 H 23.131219498728207 2.0251562342043314 45.972105367006385 H 0.0 **** 0.41
5784 H 22.42635079533343 1.2632248201055205 47.28616990142612 H 0.0 **** 0.41
5785 O 42.91508146698024 40.650940588603525 27.58688386868157 O 0.0 **** -0.82
5786 H 42.955139146014375 41.44703941577256 26.940994116384033 H 0.0 **** 0.41
5787 H 42.41605746676069 40.949208613131596 28.40889634536476 H 0.0 **** 0.41
5788 O 49.51730495879026 29.210751725852845 29.675825147935683 O 0.0 **** -0.82
5789 H 49.66297147887649 29.616107822626333 28.722802823289232 H 0.0 **** 0.41
5790 H 48.764630981640806 29.70939657309354 30.102956864033583 H 0.0 **** 0.41
5791 O 22.62550212951377 19.540395980205904 47.159981155492076 O 0.0 **** -0.82
5792 H 23.20221776618989 19.382445174865822 46.34092057775788 H 0.0 **** 0.41
5793 H 21.820272404449998 18.939444538584894 47.01394078189884 H 0.0 **** 0.41
5794 O 20.892492675299057 28.719966826966548 43.00581813559914 O 0.0 **** -0.82
5795 H 21.18911630670538 29.447742137905777 42.375666951304225 H 0.0 **** 0.41
5796 H 21.44530376495404 29.00401017717447 43.82346219163183 H 0.0 **** 0.41
5797 O 28.31807867394997 46.26813091555437 3.3141805837207836 O 0.0 **** -0.82
5798 H 29.173015653630692 46.75669491313332 3.2018830938014355 H 0.0 **** 0.41
5799 H 27.58261779337213 46.97740192017229 3.19222522184266 H 0.0 **** 0.41
5800 O 0.9738285397221045 4.724203822547388 5.344507761021369 O 0.0 **** -0.82
5801 H 0.42090427058397617 4.495984951986102 6.162691567679175 H 0.0 **** 0.41
5802 H 1.9707854836239795 4.701658396639196 5.666244800553699 H 0.0 **** 0.41
5803 O 4.840425366043853 28.96902113156841 36.803642097378116 O 0.0 **** -0.82
5804 H 4.943954593758562 29.553179611424213 35.95352778796781 H 0.0 **** 0.41
5805 H 3.8984767762470938 29.174472931508888 37.01785786928708 H 0.0 **** 0.41
5806 O 10.12305733808495 27.284305205631014 18.163356605401688 O 0.0 **** -0.82
5807 H 11.082282957036437 27.59202269042992 18.20625003641318 H 0.0 **** 0.41
5808 H 9.927478800371702 27.125617802313563 17.21146248414962 H 0.0 **** 0.41
5809 O 49.66992017041819 25.025150608114863 36.9844012024884 O 0.0 **** -0.82
5810 H 50.26330409929359 24.51235683339223 36.306702502363976 H 0.0 **** 0.41
5811 H 50.336497629755094 25.316220295190078 37.65139587958362 H 0.0 **** 0.41
5812 O 39.52940301231894 29.49644002866401 32.23049050557408 O 0.0 **** -0.82
5813 H 39.07214197159984 30.22859044158693 32.79317444145918 H 0.0 **** 0.41
5814 H 39.47276595017193 28.640951907087867 32.7982869821068 H 0.0 **** 0.41
5815 O 24.52214642118646 27.991383989274254 23.6149769160709 O 0.0 **** -0.82
5816 H 24.82823040088927 27.311148949685787 24.33496247278893 H 0.0 **** 0.41
5817 H 24.137421128034017 27.401501318269382 22.92765725159998 H 0.0 **** 0.41
5818 O 27.87692403266919 42.51612123782087 44.26973744224105 O 0.0 **** -0.82
5819 H 28.11788220490206 41.81675497195717 44.99208410620356 H 0.0 **** 0.41
5820 H 26.89793065619405 42.341935482630255 44.235901995751604 H 0.0 **** 0.41
5821 O 43.43355563556542 9.506395668612694 0.20288717873731682 O 0.0 **** -0.82
5822 H 44.295853964209144 9.051719483146174 -0.08011056584889076 H 0.0 **** 0.41
5823 H 43.79302217880223 10.341884414675791 0.6261259456226144 H 0.0 **** 0.41
5824 O 5.3923035917816255 6.737994154200213 31.296738279934672 O 0.0 **** -0.82
5825 H 5.406611444168283 5.771567006509708 31.523997731519174 H 0.0 **** 0.41
5826 H 4.4448228635433535 6.7970923623722515 30.968245120364003 H 0.0 **** 0.41
5827 O 22.748805880066882 33.16396412898074 16.0495160221251 O 0.0 **** -0.82
5828 H 23.06244497320904 34.158665574687966 16.02767706111593 H 0.0 **** 0.41
5829 H 23.10378357692214 32.93928286160793 16.99974990430953 H 0.0 **** 0.41
5830 O 39.68424075745531 37.51198092193237 5.7271835811657 O 0.0 **** -0.82
5831 H 38.69147321300326 37.28455636671539 5.52863652767783 H 0.0 **** 0.41
5832 H 40.20504938737618 37.01729628273705 5.016099928519563 H 0.0 **** 0.41
5833 O 14.147808367276937 27.19351815737091 33.84199677924311 O 0.0 **** -0.82
5834 H 13.915974626355364 26.53220943639563 33.10807468937646 H 0.0 **** 0.41
5835 H 14.991276443775199 27.606229254427184 33.40749736106916 H 0.0 **** 0.41
5836 O 33.46812257585273 46.62054686946072 33.648153145903876 O 0.0 **** -0.82
5837 H 34.49038683484582 46.88590843777444 33.505275032576066 H 0.0 **** 0.41
5838 H 33.147633825482906 47.50114241319139 34.00630426794927 H 0.0 **** 0.41
5839 O 5.705749050734354 47.273077402073454 9.717483226132883 O 0.0 **** -0.82
5840 H 4.886392401218659 47.8114971267911 9.483296153853058 H 0.0 **** 0.41
5841 H 6.172207027468942 47.82410464536531 10.410903142083036 H 0.0 **** 0.41
5842 O 19.9772861277328 21.960794945911033 8.62028289911205 O 0.0 **** -0.82
5843 H 19.736419420060354 20.995868280148827 8.61691843840053 H 0.0 **** 0.41
5844 H 20.847860970832603 22.091820841213405 8.131647795874585 H 0.0 **** 0.41
5845 O 47.291830569656774 43.78153577887948 43.64048067123954 O 0.0 **** -0.82
5846 H 47.603800380572885 42.862339764340476 43.92941857192086 H 0.0 **** 0.41
5847 H 46.838737511564254 44.14581564315011 44.456126394382835 H 0.0 **** 0.41
5848 O 8.60754966907341 31.65104021319259 3.2128472389029534 O 0.0 **** -0.82
5849 H 7.829874112624231 32.28938488796836 2.9099615810635684 H 0.0 **** 0.41
5850 H 9.488794668865841 32.138089597421306 3.375708102252193 H 0.0 **** 0.41
5851 O 15.083262129972349 10.310451478764776 34.657277151886156 O 0.0 **** -0.82
5852 H 14.535219697566976 9.769208735871047 35.26534773918088 H 0.0 **** 0.41
5853 H 15.955928099363861 10.503237670592682 35.09335328343089 H 0.0 **** 0.41
5854 O 43.75273868259564 32.111143895611775 18.47747292599843 O 0.0 **** -0.82
5855 H 43.58627492838494 31.249014351364885 17.912367726046735 H 0.0 **** 0.41
5856 H 44.61445181640935 31.876878381077645 18.97781559031262 H 0.0 **** 0.41
5857 O 1.5461337709195035 1.5715143749722151 17.445962739629906 O 0.0 **** -0.82
5858 H 2.0331831550043944 0.74027959850684 17.43732062316495 H 0.0 **** 0.41
5859 H 1.7260340431966412 1.8828305157038967 16.483095811391664 H 0.0 **** 0.41
5860 O 9.68662244469553 38.21017233142531 14.215225296093124 O 0.0 **** -0.82
5861 H 8.750512178461687 38.528964831115 13.959955211189268 H 0.0 **** 0.41
5862 H 10.235843664434691 38.443491641566254 13.358270002311926 H 0.0 **** 0.41
5863 O 43.50350349456538 24.664673653217392 49.53144367782378 O 0.0 **** -0.82
5864 H 43.07848423897849 25.285799095964933 48.947428604472506 H 0.0 **** 0.41
5865 H 43.624971799194164 25.21204008735569 50.36460375147588 H 0.0 **** 0.41
5866 O 36.629801467598014 49.474136624385984 30.281970731043963 O 0.0 **** -0.82
5867 H 37.63353743821245 49.55152178396182 30.358605531615368 H 0.0 **** 0.41
5868 H 36.40853525301682 49.76843349311665 29.34487740411945 H 0.0 **** 0.41
5869 O 29.78800518980002 24.739344472692554 10.243559031433698 O 0.0 **** -0.82
5870 H 30.10259407346952 25.69238740306951 10.500253530807798 H 0.0 **** 0.41
5871 H 29.018332423972783 24.840675598923387 9.578228420986928 H 0.0 **** 0.41
5872 O 27.342747931149617 38.532880090713604 49.84933191045033 O 0.0 **** -0.82
5873 H 27.171876769753702 38.031094962430636 48.989613425380234 H 0.0 **** 0.41
5874 H 26.819077128433978 38.039192718885545 50.50331669241678 H 0.0 **** 0.41
5875 O 4.278066117321714 7.700013338401402 9.128511891295744 O 0.0 **** -0.82
5876 H 3.78795137975213 8.335951577645625 8.591046600977428 H 0.0 **** 0.41
5877 H 4.693094395084827 8.255309780948405 9.902153696898097 H 0.0 **** 0.41
5878 O 1.2090205789315007 36.25057724788028 46.2971071076356 O 0.0 **** -0.82
5879 H 1.9183476193061821 36.167409081783056 47.0701230492831 H 0.0 **** 0.41
5880 H 1.562846799267973 35.909289201262425 45.41665043228989 H 0.0 **** 0.41
5881 O 26.160518012562857 28.66213248788251 38.75273879512163 O 0.0 **** -0.82
5882 H 25.308218344859803 28.414561015115872 39.28102172431624 H 0.0 **** 0.41
5883 H 26.95302467397772 28.513450644311874 39.40189686265412 H 0.0 **** 0.41
5884 O 11.378347692114133 21.87262308341467 21.06216762825086 O 0.0 **** -0.82
5885 H 10.443723494563535 21.936383405658997 20.669016223298588 H 0.0 **** 0.41
5886 H 12.0086273650263 22.614373657015996 20.736168475843318 H 0.0 **** 0.41
5887 O 1.5379808703004656 45.12154988301658 29.37623423864382 O 0.0 **** -0.82
5888 H 0.7467231505742618 44.92039992825268 29.93707026284548 H 0.0 **** 0.41
5889 H 1.3149064423757295 44.802405017574586 28.415148969485816 H 0.0 **** 0.41
5890 O 28.225702704660495 33.31593022600177 23.47526387368066 O 0.0 **** -0.82
5891 H 27.72795506668099 34.17164413487164 23.238378250883812 H 0.0 **** 0.41
5892 H 28.51882213937187 33.32903519814271 24.46821246493569 H 0.0 **** 0.41
5893 O 2.688943964571434 31.4199097259435 46.945185680801536 O 0.0 **** -0.82
5894 H 2.269229583587241 32.0854305309395 47.5474623447209 H 0.0 **** 0.41
5895 H 2.476549909962594 31.671494195817516 45.992732416584545 H 0.0 **** 0.41
5896 O 16.537475440406666 0.1374588156323071 40.76002650088628 O 0.0 **** -0.82
5897 H 16.773981743602505 1.0036512165862561 40.283408964333944 H 0.0 **** 0.41
5898 H 15.506955093398972 -0.035827312170269465 40.69200847179792 H 0.0 **** 0.41
5899 O 13.126624072608422 43.22238640702424 0.5508594976033265 O 0.0 **** -0.82
5900 H 14.092147809669697 43.42214021737968 0.7738432637347898 H 0.0 **** 0.41
5901 H 13.051630147191545 43.45247120948587 -0.4275013500526441 H 0.0 **** 0.41
5902 O 43.88194375020548 35.51658463662361 43.49721975752365 O 0.0 **** -0.82
5903 H 44.242569014520704 34.7082028215244 43.9112517113234 H 0.0 **** 0.41
5904 H 43.38879701067901 35.99431561310321 44.253248997605226 H 0.0 **** 0.41
5905 O 9.376689031799202 27.120351142128477 15.589049666709016 O 0.0 **** -0.82
5906 H 9.92104372186212 27.858769857050646 15.045960011427383 H 0.0 **** 0.41
5907 H 8.391528783201004 27.354167030939802 15.693056534878494 H 0.0 **** 0.41
5908 O 41.42571167436157 20.85134954601683 13.093050606633149 O 0.0 **** -0.82
5909 H 41.34432277067494 19.80817491827796 12.979766927523293 H 0.0 **** 0.41
5910 H 41.170768116798605 20.987541537933396 14.057629870522547 H 0.0 **** 0.41
5911 O 29.188394142814843 27.338655012397652 43.06434525752328 O 0.0 **** -0.82
5912 H 30.10831038299178 27.029305692785087 42.82369267597993 H 0.0 **** 0.41
5913 H 28.815235615567296 26.550003884943706 43.637107506187164 H 0.0 **** 0.41
5914 O 30.215458752247216 31.69337675433669 44.11297425095655 O 0.0 **** -0.82
5915 H 29.28011623104495 31.692524293081405 43.88681306022443 H 0.0 **** 0.41
5916 H 30.486589409877915 32.52753808959889 44.65393416564294 H 0.0 **** 0.41
5917 O 6.259610361947736 27.76238955011941 13.998646194087385 O 0.0 **** -0.82
5918 H 5.58686995680903 28.427540259576574 14.309040981338057 H 0.0 **** 0.41
5919 H 6.399016173767549 27.22279081335368 14.844527217803332 H 0.0 **** 0.41
5920 O 36.83829603956127 31.45628823344658 29.772620034710407 O 0.0 **** -0.82
5921 H 37.3718119691025 30.651757309918356 30.100895104596525 H 0.0 **** 0.41
5922 H 37.27891455288737 32.28810366572307 30.030021324386663 H 0.0 **** 0.41
5923 O 24.98865384548745 44.466678338407235 18.529868711601285 O 0.0 **** -0.82
5924 H 25.057769332714088 45.47312534949264 18.333625479903198 H 0.0 **** 0.41
5925 H 25.19371997047895 44.33638510249457 19.51099946414378 H 0.0 **** 0.41
5926 O 11.114599532974019 23.35262353906631 47.36163788508634 O 0.0 **** -0.82
5927 H 11.50105612181795 23.26324793834597 48.24441200167956 H 0.0 **** 0.41
5928 H 11.531004274140832 24.174869049087476 47.00996689100079 H 0.0 **** 0.41
5929 O 32.37065548759088 16.144714199736555 25.050649614472285 O 0.0 **** -0.82
5930 H 32.57147657252707 15.206197438587765 25.349380590021255 H 0.0 **** 0.41
5931 H 31.796179720572407 16.14233032242133 24.217052627724836 H 0.0 **** 0.41
5932 O 47.58905172280827 47.82745986101946 24.384047625970567 O 0.0 **** -0.82
5933 H 47.213382875246005 48.70063900539692 24.72575243723415 H 0.0 **** 0.41
5934 H 47.91447305289296 47.99685660097856 23.436147157459516 H 0.0 **** 0.41
5935 O 36.88881629698215 2.5028881967450145 5.263341263098049 O 0.0 **** -0.82
5936 H 37.760745321515934 2.9302234951444905 5.460883115875731 H 0.0 **** 0.41
5937 H 36.975904680023575 2.3135509069280165 4.304933641608812 H 0.0 **** 0.41
5938 O 45.40733870762942 26.41091576345366 9.24922639931086 O 0.0 **** -0.82
5939 H 44.83492647746351 26.30229352818364 8.40681583595733 H 0.0 **** 0.41
5940 H 44.93833699087852 27.041874073331982 9.835519426010187 H 0.0 **** 0.41
5941 O 17.353470992955828 43.66762929215563 30.961376016681722 O 0.0 **** -0.82
5942 H 18.20524803752366 43.89628915388474 30.39764773076717 H 0.0 **** 0.41
5943 H 17.793067097065467 43.62343153060044 31.883686037947747 H 0.0 **** 0.41
5944 O 31.793045387007147 7.657665806821271 43.8725936319625 O 0.0 **** -0.82
5945 H 31.468916042865132 8.587906750050173 43.99915861300561 H 0.0 **** 0.41
5946 H 31.227319267353764 7.372664286095066 43.062965590441266 H 0.0 **** 0.41
5947 O 20.558584043265455 11.483248363456532 6.767842149867228 O 0.0 **** -0.82
5948 H 20.231227508684555 11.737326161308708 5.833824413175778 H 0.0 **** 0.41
5949 H 20.79343769604577 12.40092928448064 7.325667368820081 H 0.0 **** 0.41
5950 O 26.213581952881302 15.156235583609323 48.66911131070156 O 0.0 **** -0.82
5951 H 26.88288445596662 15.870275662574844 48.29803280971492 H 0.0 **** 0.41
5952 H 26.2819028951799 14.504389961705236 47.88200167152402 H 0.0 **** 0.41
5953 O 0.6066937631728596 33.65954105478098 6.286308191644289 O 0.0 **** -0.82
5954 H -0.10724957547265745 33.905418669587526 5.615190385160863 H 0.0 **** 0.41
5955 H 0.6415118960414791 34.45030867559345 6.913163023703266 H 0.0 **** 0.41
5956 O 34.083704121757286 30.5728393294145 14.398502074854195 O 0.0 **** -0.82
5957 H 34.63269122971385 30.96315718280564 13.666211644246115 H 0.0 **** 0.41
5958 H 33.10045088833164 30.80843924851872 14.11883376576766 H 0.0 **** 0.41
5959 O 48.557867311261425 33.86564502379199 46.30671733843834 O 0.0 **** -0.82
5960 H 47.91701519156403 33.83673123716328 47.0943435360818 H 0.0 **** 0.41
5961 H 48.39433449879764 34.7831922033836 45.82017072122432 H 0.0 **** 0.41
5962 O 3.005905232961261 42.123947593411756 26.88277377513026 O 0.0 **** -0.82
5963 H 2.7026145589987536 41.64146950957137 27.764917981151005 H 0.0 **** 0.41
5964 H 4.042392486001837 42.02476427399181 26.89767682327461 H 0.0 **** 0.41
5965 O 41.12135850189796 28.1815191132416 13.99235278731306 O 0.0 **** -0.82
5966 H 41.11135289091644 27.424955967160102 13.391721870176372 H 0.0 **** 0.41
5967 H 40.98982130685596 27.939905953735074 14.987702041709662 H 0.0 **** 0.41
5968 O 25.27505657159915 27.26254712174192 36.51227733991385 O 0.0 **** -0.82
5969 H 25.755678310489586 27.87679752473622 37.19201419818745 H 0.0 **** 0.41
5970 H 25.336816132245247 27.720175683933306 35.603959294915654 H 0.0 **** 0.41
5971 O 43.843515266553105 40.40919224396723 20.244981574046587 O 0.0 **** -0.82
5972 H 44.44071171001579 39.62992240847798 20.570701482029637 H 0.0 **** 0.41
5973 H 44.10034020034839 40.56712922006148 19.27536266326778 H 0.0 **** 0.41
5974 O 28.209969047782458 30.81592502792338 40.262318349299626 O 0.0 **** -0.82
5975 H 27.514548419941598 31.43744333205238 40.54454133281083 H 0.0 **** 0.41
5976 H 28.94797198909945 31.4632646247546 40.11256760904888 H 0.0 **** 0.41
5977 O 40.656000777970974 29.327105957741356 28.832321226078065 O 0.0 **** -0.82
5978 H 40.91033424775235 30.236131836411605 28.486173954454355 H 0.0 **** 0.41
5979 H 40.51571537042055 28.826271011718227 27.943993260064122 H 0.0 **** 0.41
5980 O 18.945355027698916 23.185846622245123 39.91585995705989 O 0.0 **** -0.82
5981 H 19.931870525879866 22.894607032856218 39.71859251606454 H 0.0 **** 0.41
5982 H 18.519631774169298 23.409063839828434 39.05513299300506 H 0.0 **** 0.41
5983 O 44.94843802291226 32.53164307951381 33.2792862109481 O 0.0 **** -0.82
5984 H 45.05513368152008 31.71478336184337 32.68507044465331 H 0.0 **** 0.41
5985 H 45.77225742639173 33.10212804435387 33.10624695472567 H 0.0 **** 0.41
5986 O 38.351186087714325 32.217327612523135 48.170603264172826 O 0.0 **** -0.82
5987 H 38.857633198207786 31.37493384515851 47.88029754306992 H 0.0 **** 0.41
5988 H 38.579417108277276 32.269361594783604 49.140240980777634 H 0.0 **** 0.41
5989 O 2.5908036332189326 10.358750181475026 30.347622528889715 O 0.0 **** -0.82
5990 H 2.7863530845372466 10.451777853575335 29.36732910853671 H 0.0 **** 0.41
5991 H 3.2666091506713926 10.824794636792697 30.94143424418403 H 0.0 **** 0.41
5992 O 37.669475709879926 11.737725242394724 13.981519259276839 O 0.0 **** -0.82
5993 H 36.86203197172669 11.309031289401105 14.432688200830285 H 0.0 **** 0.41
5994 H 38.081396576042515 12.275930828274376 14.671182523592309 H 0.0 **** 0.41
5995 O 8.87296189770683 49.13224814128672 13.172682868107024 O 0.0 **** -0.82
5996 H 9.25859009646382 50.01449792878402 13.451434954685771 H 0.0 **** 0.41
5997 H 8.534673746263778 48.67135347966712 13.992331824384296 H 0.0 **** 0.41
5998 O 38.7737022943193 26.503661574412778 22.83925508816692 O 0.0 **** -0.82
5999 H 38.00913882648019 27.184632696084396 22.97370570430023 H 0.0 **** 0.41
6000 H 39.03611365018484 26.129353362196735 23.75277975258304 H 0.0 **** 0.41
6001 O 49.502935711625945 33.68722014820109 9.435428035736898 O 0.0 **** -0.82
6002 H 48.80670646179793 33.92368227945897 8.699848804087068 H 0.0 **** 0.41
6003 H 49.91145270861027 34.61699385377574 9.591042967786628 H 0.0 **** 0.41
6004 O 20.149456037092666 5.509650790712636 30.83542084838001 O 0.0 **** -0.82
6005 H 19.546887999764472 6.305391405352037 30.85653209960806 H 0.0 **** 0.41
6006 H 20.99547525418006 5.871478445178143 30.41841772298518 H 0.0 **** 0.41
6007 O 1.772346633291484 41.52480398714796 14.945207994855943 O 0.0 **** -0.82
6008 H 2.1956312013871795 42.37031740996984 15.395113277908854 H 0.0 **** 0.41
6009 H 2.4615309143665627 40.870364855751475 15.423414349385874 H 0.0 **** 0.41
6010 O 47.55901404674424 31.30054667446405 3.9158275519547745 O 0.0 **** -0.82
6011 H 46.73814981118671 30.905544423666978 3.525140561284332 H 0.0 **** 0.41
6012 H 48.405541937927914 30.91908175400639 3.6039441615644163 H 0.0 **** 0.41
6013 O 49.374426345893454 2.8153682127860975 38.74368365951943 O 0.0 **** -0.82
6014 H 49.18322731646811 1.9233230755141193 38.21026322718753 H 0.0 **** 0.41
6015 H 50.248508408373226 2.6417195391752983 39.25872107722074 H 0.0 **** 0.41
6016 O 21.8209856229429 17.39708495581737 8.232735495497188 O 0.0 **** -0.82
6017 H 22.105801009324566 16.452554760815346 7.8317055818629955 H 0.0 **** 0.41
6018 H 22.437513590240997 17.533199175167212 9.068936516644445 H 0.0 **** 0.41
6019 O 30.951435578290102 40.652770111796094 43.32239263375155 O 0.0 **** -0.82
6020 H 31.96283156947898 40.53541929239946 43.490632713876124 H 0.0 **** 0.41
6021 H 30.764725418392484 41.362918452634 44.010453546663605 H 0.0 **** 0.41
6022 O 10.887160348043693 8.002297195875613 44.31875448004461 O 0.0 **** -0.82
6023 H 11.600474633469375 8.43882399215154 44.86465214785448 H 0.0 **** 0.41
6024 H 10.16211419668695 7.8077900846211605 44.933703656466484 H 0.0 **** 0.41
6025 O 33.516339436263195 8.856229202615614 3.8020980073605415 O 0.0 **** -0.82
6026 H 34.363918023400075 8.857275150166668 4.358491988410762 H 0.0 **** 0.41
6027 H 33.782077956543375 9.385109332982186 2.966715181958378 H 0.0 **** 0.41
6028 O 37.29650602601798 23.169725859142304 23.967713244154748 O 0.0 **** -0.82
6029 H 37.38488277332496 22.69636782962138 24.895556630360407 H 0.0 **** 0.41
6030 H 36.88031813940262 22.45308562116 23.412114766405814 H 0.0 **** 0.41
6031 O 14.843072055165521 44.04689651644378 40.17296730072865 O 0.0 **** -0.82
6032 H 14.168102790804213 43.389873986450766 40.54939925790482 H 0.0 **** 0.41
6033 H 15.416455468998265 43.60973539054917 39.524026246747276 H 0.0 **** 0.41
6034 O 46.325446211870464 7.3331332293894524 18.450413333626667 O 0.0 **** -0.82
6035 H 46.60136070051147 8.250937744269764 18.81524953249281 H 0.0 **** 0.41
6036 H 45.39936320233471 7.5986956271005255 18.193462482998935 H 0.0 **** 0.41
6037 O 33.119209847333735 0.09304217997071548 32.102469122173034 O 0.0 **** -0.82
6038 H 33.18242343050622 -0.6276333226511781 31.377648984860013 H 0.0 **** 0.41
6039 H 33.43617936105963 0.9445833209918627 31.7123811356168 H 0.0 **** 0.41
6040 O 11.648379858347795 21.83805556360538 23.749731835462224 O 0.0 **** -0.82
6041 H 12.59989212570872 21.585833158179298 23.828504650820552 H 0.0 **** 0.41
6042 H 11.471785081256826 21.725205887364687 22.73681088195892 H 0.0 **** 0.41
6043 O 0.9737294382590305 48.4650876655185 13.859350025248196 O 0.0 **** -0.82
6044 H 0.3668138970937289 47.71543615667322 14.149246040895148 H 0.0 **** 0.41
6045 H 1.7860599071657242 48.33992879340392 14.481276522870838 H 0.0 **** 0.41
6046 O 4.517808784196671 1.9668950548683952 6.998508164623999 O 0.0 **** -0.82
6047 H 5.002458251445934 2.592699059599461 6.44794849152045 H 0.0 **** 0.41
6048 H 4.863373614176147 1.1258120265784228 6.493169746742896 H 0.0 **** 0.41
6049 O 26.582722220466646 9.193911256946478 43.41482483806976 O 0.0 **** -0.82
6050 H 25.749686117302137 9.41396667818264 42.89864677917586 H 0.0 **** 0.41
6051 H 26.236601499822125 8.513773555338782 44.11112162110201 H 0.0 **** 0.41
6052 O 21.78727851894928 47.26647680754439 49.82424807949059 O 0.0 **** -0.82
6053 H 22.22265901654903 46.65869797359307 50.533719410540485 H 0.0 **** 0.41
6054 H 22.34010783580551 47.18038205420085 48.992613093163115 H 0.0 **** 0.41
6055 O 1.3787565500579264 12.554190502017605 49.198426740832964 O 0.0 **** -0.82
6056 H 2.042107681113969 13.216578805646648 48.79375876904263 H 0.0 **** 0.41
6057 H 0.7382023650966689 12.248245026498424 48.4607053740287 H 0.0 **** 0.41
6058 O 42.36858900472111 33.88405496746238 15.432467613817435 O 0.0 **** -0.82
6059 H 43.03757196192651 33.15976714009167 15.510764030826692 H 0.0 **** 0.41
6060 H 42.68455191952502 34.58975981018737 16.102725538633546 H 0.0 **** 0.41
6061 O 47.34366395067753 35.638143846053005 13.860345831890157 O 0.0 **** -0.82
6062 H 47.53239680423218 35.257606131878696 12.928889369085063 H 0.0 **** 0.41
6063 H 48.197944810758415 36.07137121966136 14.19991759729556 H 0.0 **** 0.41
6064 O 42.56304993598287 37.82307361913456 34.635271138226 O 0.0 **** -0.82
6065 H 43.15496506269008 36.98501929774602 34.741615302657166 H 0.0 **** 0.41
6066 H 43.12622156573941 38.66826768328197 34.96836200358643 H 0.0 **** 0.41
6067 O 7.505809963097249 16.006156999938387 6.273843350002366 O 0.0 **** -0.82
6068 H 7.902578283177796 16.501914011727198 5.477394976045268 H 0.0 **** 0.41
6069 H 8.196864342796687 16.153016074816 7.004414738682314 H 0.0 **** 0.41
6070 O 45.43191416328896 29.721688499628176 0.9416889375930779 O 0.0 **** -0.82
6071 H 45.545016132399695 29.1798235917159 1.800996034020443 H 0.0 **** 0.41
6072 H 44.84146519948523 30.542408982759063 1.0325634819142238 H 0.0 **** 0.41
6073 O 25.77140733801629 18.1102439928192 4.50410741058208 O 0.0 **** -0.82
6074 H 26.05257615163771 17.47211557040137 3.7719820074027766 H 0.0 **** 0.41
6075 H 26.437750670406388 18.84818608947378 4.560227962924159 H 0.0 **** 0.41
6076 O 27.740445289382155 10.626273015152542 19.766965186063437 O 0.0 **** -0.82
6077 H 28.726229235411488 10.442277027929784 19.501006165811727 H 0.0 **** 0.41
6078 H 27.81209332195003 10.354346866427193 20.696631012738454 H 0.0 **** 0.41
6079 O 46.73083495909384 26.61368067100433 47.80689957822715 O 0.0 **** -0.82
6080 H 47.53094040719755 27.016519752953613 48.18902742396299 H 0.0 **** 0.41
6081 H 45.88311438190075 27.102584583584658 48.1405663665593 H 0.0 **** 0.41
6082 O 10.698046901186126 24.113466654458776 4.360094761965371 O 0.0 **** -0.82
6083 H 10.023941370151697 23.34797293176746 4.580899901700215 H 0.0 **** 0.41
6084 H 10.156425765908807 24.980880821097387 4.454323914688669 H 0.0 **** 0.41
6085 O 34.09172393383997 29.596106579799002 7.115832127770048 O 0.0 **** -0.82
6086 H 34.68686774637229 29.20905791704343 6.3517132376872425 H 0.0 **** 0.41
6087 H 33.85866699856039 28.824939758606494 7.695009500319024 H 0.0 **** 0.41
6088 O 37.5882676406677 18.63837568632222 38.55707852019813 O 0.0 **** -0.82
6089 H 38.31842700342237 18.785519318670495 37.91895950475209 H 0.0 **** 0.41
6090 H 37.69776593087725 19.328476563350737 39.31190933022074 H 0.0 **** 0.41
6091 O 29.492440192319094 37.167562995078065 6.519993409509645 O 0.0 **** -0.82
6092 H 29.25867197431772 37.40962473584417 5.508318341344506 H 0.0 **** 0.41
6093 H 30.243120107672468 36.48827029426559 6.297617066901914 H 0.0 **** 0.41
6094 O 18.52045406812877 3.24448911240911 24.39338484665319 O 0.0 **** -0.82
6095 H 19.09925415726795 4.10679862696503 24.5542602080877 H 0.0 **** 0.41
6096 H 18.93349175852424 2.8694141343066115 23.532498440186707 H 0.0 **** 0.41
6097 O 5.914734096850911 21.42531938720806 0.14217590252882148 O 0.0 **** -0.82
6098 H 4.90283470209699 21.376498091457876 -0.04777244149774873 H 0.0 **** 0.41
6099 H 6.312801650872233 22.265856903625206 -0.3388300239764348 H 0.0 **** 0.41
6100 O 14.083464990704192 39.131928743570896 36.21356472069455 O 0.0 **** -0.82
6101 H 14.84278092509206 39.754560096700025 36.56620854058593 H 0.0 **** 0.41
6102 H 13.66675306887026 38.696309759340025 37.0291394793714 H 0.0 **** 0.41
6103 O 26.397354128239733 11.312315815947077 16.5947478476047 O 0.0 **** -0.82
6104 H 26.302386769111763 11.877495322426384 15.781105538912675 H 0.0 **** 0.41
6105 H 25.633994286735653 10.641664244267584 16.50331266064919 H 0.0 **** 0.41
6106 O 42.29903419124192 8.792702013735656 37.622324519793345 O 0.0 **** -0.82
6107 H 41.453145422849786 8.33916601746322 37.23970396233068 H 0.0 **** 0.41
6108 H 41.90230115237418 9.51382079029814 38.24790160361552 H 0.0 **** 0.41
6109 O 16.124390513086688 7.357819334685344 2.7167956051620936 O 0.0 **** -0.82
6110 H 15.304734402325934 6.824632257172518 2.7656044867670277 H 0.0 **** 0.41
6111 H 16.333860979328122 7.377023575932902 1.716948766407506 H 0.0 **** 0.41
6112 O 8.727069424249324 34.0093716269671 37.46933897267335 O 0.0 **** -0.82
6113 H 9.2840905675917 33.967398318871616 38.328322821458514 H 0.0 **** 0.41
6114 H 8.434281077889988 33.03190161914317 37.298729152225945 H 0.0 **** 0.41
6115 O 3.7963413944908027 30.265020821994586 13.141446735970561 O 0.0 **** -0.82
6116 H 3.3487572341038145 31.17129172990525 13.404342399203031 H 0.0 **** 0.41
6117 H 3.3030005068632846 29.62557045030427 13.763931190050187 H 0.0 **** 0.41
6118 O 33.168755844783945 0.18251620965806126 6.409545181793683 O 0.0 **** -0.82
6119 H 33.67468620364413 -0.011692474569265698 7.257066951336376 H 0.0 **** 0.41
6120 H 33.407448191414474 -0.5796823914645088 5.805207660711901 H 0.0 **** 0.41
6121 O 31.08454809607046 48.539322082215854 28.02769500385541 O 0.0 **** -0.82
6122 H 31.24223929951718 49.25705414255344 27.327128042594154 H 0.0 **** 0.41
6123 H 30.088891706078712 48.45578483796977 28.119457214996366 H 0.0 **** 0.41
6124 O 14.097444642133254 15.102150839665697 44.944857087093204 O 0.0 **** -0.82
6125 H 13.275289957597174 14.942426471209282 44.39902800288917 H 0.0 **** 0.41
6126 H 14.630009196742918 15.737719515818617 44.38062862537346 H 0.0 **** 0.41
6127 O 32.23063129127241 6.313696141154317 13.63910581072627 O 0.0 **** -0.82
6128 H 32.8851157736605 5.878233832477122 12.92644176702968 H 0.0 **** 0.41
6129 H 31.633677501262472 5.504151423507977 13.883473717418013 H 0.0 **** 0.41
6130 O 37.54784909409989 3.825824359888813 32.73562055527651 O 0.0 **** -0.82
6131 H 36.891495453891146 4.623270270958578 32.889621210817786 H 0.0 **** 0.41
6132 H 37.0233329218577 2.938498433590354 32.4204109352028 H 0.0 **** 0.41
6133 O 36.03110771992863 27.833756643341854 27.733736670380193 O 0.0 **** -0.82
6134 H 35.38585972156975 27.185715741816967 27.329853569354704 H 0.0 **** 0.41
6135 H 36.09875444632095 27.59994490875555 28.724918116503734 H 0.0 **** 0.41
6136 O 33.675859596901944 6.868576845815738 17.862635155373578 O 0.0 **** -0.82
6137 H 33.8191245594222 6.330673914616824 17.01660559213915 H 0.0 **** 0.41
6138 H 33.836735994419314 6.1711108073202325 18.594146066060464 H 0.0 **** 0.41
6139 O 42.560891370155595 19.195168499439518 19.66575235713114 O 0.0 **** -0.82
6140 H 42.63267256042478 19.90663062115087 20.373121433137996 H 0.0 **** 0.41
6141 H 42.648497641039356 18.361607813183166 20.18669049448647 H 0.0 **** 0.41
6142 O 49.53121309839677 23.007199545688135 20.756658242028575 O 0.0 **** -0.82
6143 H 50.09743206565491 23.727185580746653 21.117031859469076 H 0.0 **** 0.41
6144 H 49.332590380661514 22.296038407860937 21.46771055954619 H 0.0 **** 0.41
6145 O 44.84992058993365 34.005966264831294 29.099053235572722 O 0.0 **** -0.82
6146 H 45.047763886216124 33.96578942001991 28.08921001757394 H 0.0 **** 0.41
6147 H 44.30466154520154 33.17538845358294 29.34960346798557 H 0.0 **** 0.41
6148 O 15.071590425180261 27.03590136148604 11.215431446502958 O 0.0 **** -0.82
6149 H 15.236687316864348 26.179960236795267 11.71020599310782 H 0.0 **** 0.41
6150 H 15.934969901932561 27.55078361902865 11.387130951259108 H 0.0 **** 0.41
6151 O 49.38828404155979 39.30379175326147 37.460870738200164 O 0.0 **** -0.82
6152 H 49.1433170311609 40.123586747516356 36.98213195258932 H 0.0 **** 0.41
6153 H 48.556511167946994 38.72725998613592 37.53550291080989 H 0.0 **** 0.41
6154 O 48.574962126972835 29.546340945153595 21.25722327974777 O 0.0 **** -0.82
6155 H 47.70529567294412 29.805090333335798 21.612783068384054 H 0.0 **** 0.41
6156 H 48.56656072919992 28.54475484239074 21.286452105201043 H 0.0 **** 0.41
6157 O 28.769247119031508 10.42149792926295 28.207889568625617 O 0.0 **** -0.82
6158 H 28.600782395050288 10.159551187003366 29.183576451524136 H 0.0 **** 0.41
6159 H 29.71048625147263 10.058612391224655 27.926948032843725 H 0.0 **** 0.41
6160 O 49.91268954220865 8.792949443038827 37.47391556229358 O 0.0 **** -0.82
6161 H 48.93542920879719 8.970547314050508 37.63733119709939 H 0.0 **** 0.41
6162 H 49.886327383402374 8.181284828845458 36.69048386407732 H 0.0 **** 0.41
6163 O 35.001289148000296 20.218161758538066 27.731560451109445 O 0.0 **** -0.82
6164 H 34.30619303267884 20.24790608471648 28.42604368241539 H 0.0 **** 0.41
6165 H 35.097764810063616 19.180153715192642 27.529207160591998 H 0.0 **** 0.41
6166 O 26.729356415457104 16.80759939286625 20.180556517502964 O 0.0 **** -0.82
6167 H 27.340439767090217 15.981845489887661 20.246243260024386 H 0.0 **** 0.41
6168 H 26.470320412892818 17.03658948181385 19.271202020468948 H 0.0 **** 0.41
6169 O 36.91838066293843 14.99123773010287 14.459929984206937 O 0.0 **** -0.82
6170 H 36.29159361938852 14.549987641411182 15.185622616372832 H 0.0 **** 0.41
6171 H 36.300486493296205 15.055837816660953 13.703141216245571 H 0.0 **** 0.41
6172 O 17.06762015668994 13.943797754063347 36.078879626855056 O 0.0 **** -0.82
6173 H 16.114390990396654 14.119857771919627 36.25721715178511 H 0.0 **** 0.41
6174 H 17.435061984848755 14.847121541053994 35.84125541537219 H 0.0 **** 0.41
6175 O 21.06391534230757 23.463280602033322 14.62436137978997 O 0.0 **** -0.82
6176 H 20.752319469540357 22.639023652731616 14.241970095809878 H 0.0 **** 0.41
6177 H 21.568272320130866 23.232523407797842 15.44730793682046 H 0.0 **** 0.41
6178 O 13.875671373854102 31.292222086704882 15.469269437180373 O 0.0 **** -0.82
6179 H 13.759700170630449 30.76808665079443 16.277237964227282 H 0.0 **** 0.41
6180 H 14.472611766907352 32.09610250372771 15.758119876632435 H 0.0 **** 0.41
6181 O 26.767052210232713 40.32072298846961 2.192404511849581 O 0.0 **** -0.82
6182 H 27.777993745851454 40.550232332359904 2.2184336002551035 H 0.0 **** 0.41
6183 H 26.704922967552978 39.325120028328996 2.185520472071431 H 0.0 **** 0.41
6184 O 48.775365876815826 3.4092152323255007 28.149288220898747 O 0.0 **** -0.82
6185 H 48.62811216579627 3.112896877090094 27.204588404088668 H 0.0 **** 0.41
6186 H 49.157392024180794 2.65021772037516 28.673790338967013 H 0.0 **** 0.41
6187 O 26.726536392387604 37.283704697211554 9.535332966174034 O 0.0 **** -0.82
6188 H 26.70390860638114 38.28035557327004 9.286823622196255 H 0.0 **** 0.41
6189 H 27.65748214888613 37.14884900113702 9.876200353769125 H 0.0 **** 0.41
6190 O 35.00219734115517 25.219131175956235 34.54144798437789 O 0.0 **** -0.82
6191 H 35.237016655253164 26.187225808611153 34.66544715976462 H 0.0 **** 0.41
6192 H 34.59903926883339 25.183218170231815 33.601990522987954 H 0.0 **** 0.41
6193 O 4.01997732444714 0.7639688559938449 38.79175884626563 O 0.0 **** -0.82
6194 H 3.9696161418503735 0.8112330621942831 39.83042474972264 H 0.0 **** 0.41
6195 H 4.992561138777148 1.0290481291782072 38.43817163511266 H 0.0 **** 0.41
6196 O 44.69227420493535 13.990289049958022 29.33056340984635 O 0.0 **** -0.82
6197 H 43.94312025635264 13.769521005426247 29.995139372710938 H 0.0 **** 0.41
6198 H 44.44299581526627 13.409549436560045 28.583527788789052 H 0.0 **** 0.41
6199 O 38.430160036311015 38.62199876043591 30.29772167492239 O 0.0 **** -0.82
6200 H 38.12403259803505 38.09602419631903 31.12120374189875 H 0.0 **** 0.41
6201 H 37.56207143854247 38.46863973290732 29.751857792757434 H 0.0 **** 0.41
6202 O 27.769855847158762 6.241525525267041 22.580128203014727 O 0.0 **** -0.82
6203 H 27.08124945433853 6.701866944621956 21.91878564201099 H 0.0 **** 0.41
6204 H 28.672681168263956 6.719394799302324 22.285743336288192 H 0.0 **** 0.41
6205 O 37.92215428901919 49.93063848722702 5.6160733037308015 O 0.0 **** -0.82
6206 H 38.8755163403886 50.192494638744364 5.494806707190181 H 0.0 **** 0.41
6207 H 37.308393697673274 50.768204471811856 5.498082246215282 H 0.0 **** 0.41
6208 O 35.45592961443541 48.39604699116236 18.18311106409719 O 0.0 **** -0.82
6209 H 36.45861152859318 48.47705515737947 18.382928884116822 H 0.0 **** 0.41
6210 H 35.07290411274484 47.79425988605033 18.904481262807806 H 0.0 **** 0.41
6211 O 8.712741360636059 31.050949805197842 42.734276708155235 O 0.0 **** -0.82
6212 H 7.94648026520845 31.30925814839087 43.30451129088888 H 0.0 **** 0.41
6213 H 8.38287652851622 30.166035733350366 42.38684070458012 H 0.0 **** 0.41
6214 O 8.959156075874198 44.375035568651484 28.57211076998449 O 0.0 **** -0.82
6215 H 8.171150486555604 43.77937359874598 28.753697599950222 H 0.0 **** 0.41
6216 H 8.979618447346745 44.44490029260058 27.557879364061016 H 0.0 **** 0.41
6217 O 17.38284883682139 26.82517005195551 26.508247280671128 O 0.0 **** -0.82
6218 H 17.96668028638889 27.03921140507109 27.23448724499255 H 0.0 **** 0.41
6219 H 17.490593296968996 25.82388917022451 26.263091702695064 H 0.0 **** 0.41
6220 O 46.40124768118391 9.512307495047601 45.625098074019604 O 0.0 **** -0.82
6221 H 45.467335207510715 9.056249900724744 45.6301071266785 H 0.0 **** 0.41
6222 H 46.93780794456303 8.927618268413994 46.27915388509017 H 0.0 **** 0.41
6223 O 0.49004513229400715 2.2111375828513005 4.055950215337824 O 0.0 **** -0.82
6224 H 0.31396440171605633 3.127119102831003 4.4861747636981235 H 0.0 **** 0.41
6225 H 1.466841988043086 2.1164180525085925 3.7719343456281567 H 0.0 **** 0.41
6226 O 14.559509992314487 5.110179198386464 26.486377772218564 O 0.0 **** -0.82
6227 H 13.982046329618312 4.5974880465378964 25.846535277665804 H 0.0 **** 0.41
6228 H 13.955029992443578 5.309494367994617 27.27402809649769 H 0.0 **** 0.41
6229 O 35.99800040048107 15.756606058410782 46.50063582607886 O 0.0 **** -0.82
6230 H 35.74914023910804 16.37874624259004 45.78061444416871 H 0.0 **** 0.41
6231 H 36.66456677667956 16.32070500630975 47.07131781490543 H 0.0 **** 0.41
6232 O 3.5443773733653745 39.654333279688615 11.984542066072843 O 0.0 **** -0.82
6233 H 2.9534899125585468 40.201185506192324 11.333425168886878 H 0.0 **** 0.41
6234 H 2.8884552771718157 39.10645407006709 12.51768501791889 H 0.0 **** 0.41
6235 O 15.969881280190256 31.695614835261416 23.779209901816525 O 0.0 **** -0.82
6236 H 14.988446990959513 31.568989790354898 23.48853644336622 H 0.0 **** 0.41
6237 H 15.866595036299291 31.79540877149182 24.80080325809834 H 0.0 **** 0.41
6238 O 2.4984707171470895 35.18161724035478 2.329714148744732 O 0.0 **** -0.82
6239 H 1.6844352178318778 35.74367637120678 2.1343658189488735 H 0.0 **** 0.41
6240 H 2.2638760778289484 34.20638298608287 2.0902423560557457 H 0.0 **** 0.41
6241 O 18.839050943279624 21.490802643772184 23.183948292934947 O 0.0 **** -0.82
6242 H 18.636628988428342 21.496119809917055 24.14310696225714 H 0.0 **** 0.41
6243 H 18.706544579642074 22.38037954371878 22.730731976257466 H 0.0 **** 0.41
6244 O 10.399655479169747 17.80029598424427 14.873126167145756 O 0.0 **** -0.82
6245 H 10.726859324636548 17.819713346588514 15.810353541327402 H 0.0 **** 0.41
6246 H 11.161021139687486 17.920711121471115 14.23803476488267 H 0.0 **** 0.41
6247 O 3.1784947241891204 17.08956191432668 2.6623112355172407 O 0.0 **** -0.82
6248 H 2.8016415820632026 17.16832473087024 3.631100817646512 H 0.0 **** 0.41
6249 H 2.382558653865095 16.72789646015437 2.1110651970493666 H 0.0 **** 0.41
6250 O 46.38435787625203 17.18456767090669 17.349989516012187 O 0.0 **** -0.82
6251 H 46.75143039784001 16.27620802349521 17.136951959244048 H 0.0 **** 0.41
6252 H 45.41207859848373 16.99595390442315 17.7698436360685 H 0.0 **** 0.41
6253 O 48.87668271323543 35.090117159917355 29.518511870820223 O 0.0 **** -0.82
6254 H 47.860192018216 35.17417527471612 29.796686163858713 H 0.0 **** 0.41
6255 H 49.21520300831992 36.014284778897434 29.2301552710545 H 0.0 **** 0.41
6256 O 7.888302453484159 25.564154924259313 27.177110257281484 O 0.0 **** -0.82
6257 H 7.794250122759766 24.575660957500702 27.242960931790655 H 0.0 **** 0.41
6258 H 8.878012921033585 25.68147060987252 27.22065804128495 H 0.0 **** 0.41
6259 O 18.378909879212717 2.710861530305266 9.484290225815236 O 0.0 **** -0.82
6260 H 18.741948557770773 3.5006193451742575 10.128684499993021 H 0.0 **** 0.41
6261 H 19.26738527692668 2.1986429618040546 9.239707411465474 H 0.0 **** 0.41
6262 O 25.788634075392302 29.030417603162263 34.46815031289977 O 0.0 **** -0.82
6263 H 26.387978852164288 29.817467415142602 34.21911702119777 H 0.0 **** 0.41
6264 H 26.055642066639734 28.429763803578506 33.680279759931004 H 0.0 **** 0.41
6265 O 10.477075270939203 27.636910389934236 32.861917278835556 O 0.0 **** -0.82
6266 H 10.951845755658026 28.148073048043322 32.19099214489448 H 0.0 **** 0.41
6267 H 10.24999110297561 28.417789472207954 33.489054991024496 H 0.0 **** 0.41
6268 O 34.614662122996755 19.610419028225493 8.488313374065052 O 0.0 **** -0.82
6269 H 35.06968913856519 19.233716168844538 7.706595030145699 H 0.0 **** 0.41
6270 H 35.312280440120155 20.086895477114144 9.081763758231789 H 0.0 **** 0.41
6271 O 1.653038065937551 42.489889528547124 6.962512274463869 O 0.0 **** -0.82
6272 H 1.0480642628375847 41.80156838213243 6.5244223909801065 H 0.0 **** 0.41
6273 H 2.399165055388586 42.012101025687876 7.447371147829742 H 0.0 **** 0.41
6274 O 14.622037282015363 9.521820925781 4.396133104628388 O 0.0 **** -0.82
6275 H 14.291107045822054 8.89434032974377 5.115867291725974 H 0.0 **** 0.41
6276 H 15.109995108915003 8.891300244195847 3.7857077605805163 H 0.0 **** 0.41
6277 O 36.2497660837589 27.663962384591038 35.79825561022955 O 0.0 **** -0.82
6278 H 37.071495159493125 28.082762485000742 35.38485920928837 H 0.0 **** 0.41
6279 H 35.61120816511564 28.448071973895114 35.80412913346164 H 0.0 **** 0.41
6280 O 22.31498948191432 43.73845803572284 21.14808700005182 O 0.0 **** -0.82
6281 H 21.51396586135577 43.17721198177547 21.022158677931216 H 0.0 **** 0.41
6282 H 22.041539462395864 44.50607587215414 21.728643220358897 H 0.0 **** 0.41
6283 O 19.01516355700017 33.45384347736183 28.43309114592495 O 0.0 **** -0.82
6284 H 18.070893751596753 33.639603456950326 28.011883457142428 H 0.0 **** 0.41
6285 H 19.718474485092845 33.814902033480365 27.79016864743738 H 0.0 **** 0.41
6286 O 25.10414774477026 9.68302819326351 1.6342170262800764 O 0.0 **** -0.82
6287 H 24.10360684217752 9.611215002560321 1.6098457874615093 H 0.0 **** 0.41
6288 H 25.270151706630376 9.660936292596922 2.5954630723017686 H 0.0 **** 0.41
6289 O 25.880644618557803 23.965966048974643 1.2073583365231138 O 0.0 **** -0.82
6290 H 25.508482736147005 23.15039883074601 1.6589790541579434 H 0.0 **** 0.41
6291 H 25.954368588998108 24.639702289814082 1.9276416734153754 H 0.0 **** 0.41
6292 O 23.723469266412973 6.065041378019396 2.7707435325526433 O 0.0 **** -0.82
6293 H 23.59174138575063 5.261445614081958 3.3348992926164556 H 0.0 **** 0.41
6294 H 23.174573286047448 5.880518280644598 2.012341178414758 H 0.0 **** 0.41
6295 O 20.82604427543609 12.633132489807778 46.863060788108626 O 0.0 **** -0.82
6296 H 19.946956890858587 13.143284198430514 46.90489278083662 H 0.0 **** 0.41
6297 H 20.579655464333186 11.962352358220599 46.113864911583015 H 0.0 **** 0.41
6298 O 15.206405679539628 24.754389434358032 29.717596300907793 O 0.0 **** -0.82
6299 H 14.49943593673924 25.154606525774714 30.378525363390658 H 0.0 **** 0.41
6300 H 15.984410548246688 25.429642849277062 29.7644957925175 H 0.0 **** 0.41
6301 O 25.216252660022363 24.40121499978013 44.07663736748412 O 0.0 **** -0.82
6302 H 24.663978799947458 25.242336963385615 44.13441062333364 H 0.0 **** 0.41
6303 H 25.842664442829857 24.588225625959552 43.29961925592878 H 0.0 **** 0.41
6304 O 38.798556542257685 24.379763672280134 37.85328377485097 O 0.0 **** -0.82
6305 H 39.238185709449404 25.236619709173937 37.47254796898164 H 0.0 **** 0.41
6306 H 37.8557595856645 24.469624947612758 37.63669741994882 H 0.0 **** 0.41
6307 O 41.88783563255966 8.832876108381095 27.916621122032403 O 0.0 **** -0.82
6308 H 42.708882104198935 8.265781798058839 27.656778025579964 H 0.0 **** 0.41
6309 H 41.25569800713659 8.163195647648942 28.412524618602703 H 0.0 **** 0.41
6310 O 42.17264826943347 28.41282591545286 37.05820444574539 O 0.0 **** -0.82
6311 H 42.76034743269114 27.80541365393135 36.47439061852401 H 0.0 **** 0.41
6312 H 42.92096721249028 29.128630624280976 37.05583058543985 H 0.0 **** 0.41
6313 O 0.7761858319802918 28.688966444165093 39.06307927419891 O 0.0 **** -0.82
6314 H 0.02873060698581753 28.347772667423712 38.479017890395795 H 0.0 **** 0.41
6315 H 1.332891119948815 29.072986744408293 38.30624851036284 H 0.0 **** 0.41
6316 O 21.233896080670107 2.548108122946651 13.791056766734798 O 0.0 **** -0.82
6317 H 21.373901812321517 3.1687631710072495 12.973673273414462 H 0.0 **** 0.41
6318 H 20.363023352440248 2.022005637737216 13.687724359486836 H 0.0 **** 0.41
6319 O 35.18625678391051 25.28198950780935 6.794055071392776 O 0.0 **** -0.82
6320 H 35.533752125488384 26.152024381144038 6.3208087083124695 H 0.0 **** 0.41
6321 H 34.88368909185207 24.747040009291393 5.911952272879304 H 0.0 **** 0.41
6322 O 8.291139596321521 36.11209425166875 4.666455943058111 O 0.0 **** -0.82
6323 H 8.553784353722007 36.40477778717427 3.7443015032759064 H 0.0 **** 0.41
6324 H 7.710323229653283 35.30403444893424 4.512545001911619 H 0.0 **** 0.41
6325 O 22.55517804592526 0.9090359650784663 48.70721005579718 O 0.0 **** -0.82
6326 H 23.222053710294404 0.169285691797171 48.8721196080974 H 0.0 **** 0.41
6327 H 22.983047938158492 1.7484410568576365 49.10878084864364 H 0.0 **** 0.41
6328 O 15.036645463559402 49.01527769630302 34.44591644629049 O 0.0 **** -0.82
6329 H 15.121108108401922 48.66725833890308 33.51475699040434 H 0.0 **** 0.41
6330 H 15.684892009554893 49.80370795350126 34.56102438459158 H 0.0 **** 0.41
6331 O 18.137522593627022 21.924560676808866 16.67389858347098 O 0.0 **** -0.82
6332 H 19.032492291864813 22.211605323907776 16.572030648271717 H 0.0 **** 0.41
6333 H 17.47133717441698 22.698653928237093 16.345319799382914 H 0.0 **** 0.41
6334 O 39.845375364330984 33.19367580706448 14.667259904864324 O 0.0 **** -0.82
6335 H 40.373837538055 33.883841274111305 14.149178328144096 H 0.0 **** 0.41
6336 H 40.48235409364999 32.67084472088164 15.276215879703976 H 0.0 **** 0.41
6337 O 0.5448226719750231 34.23101635178483 22.153893047851895 O 0.0 **** -0.82
6338 H 1.0190136370462883 35.059773486327046 22.530494592026574 H 0.0 **** 0.41
6339 H 0.30200529948395144 33.74110579394215 23.030933894178137 H 0.0 **** 0.41
6340 O 44.02303882490099 29.623347894943656 16.306045785683814 O 0.0 **** -0.82
6341 H 44.238364629905945 30.526112774009068 15.928206287237394 H 0.0 **** 0.41
6342 H 43.04566895436781 29.632984757561626 16.04756810738874 H 0.0 **** 0.41
6343 O 40.4235258571575 33.94514230416974 21.852982350378404 O 0.0 **** -0.82
6344 H 41.28753325370539 33.614652540319845 21.45980044531458 H 0.0 **** 0.41
6345 H 40.12508346856943 34.74286090165513 21.334669498664717 H 0.0 **** 0.41
6346 O 47.35532553704158 9.344386533833855 4.627882947720886 O 0.0 **** -0.82
6347 H 47.180650544037974 8.343338410658184 4.745558405206692 H 0.0 **** 0.41
6348 H 46.94358332476304 9.676315530478021 3.7390886502020644 H 0.0 **** 0.41
6349 O 20.525049435907675 14.3025786521047 22.5613689392205 O 0.0 **** -0.82
6350 H 19.83098929769539 13.8201878265439 23.061559215118436 H 0.0 **** 0.41
6351 H 20.349601427900797 14.275661822296897 21.513935430429804 H 0.0 **** 0.41
6352 O 28.339898411685393 40.758252183044185 35.0928975904119 O 0.0 **** -0.82
6353 H 28.14738281372711 41.465259498050166 35.81247136409958 H 0.0 **** 0.41
6354 H 29.338057284613697 40.51930322159792 34.96470153944673 H 0.0 **** 0.41
6355 O 1.148579101056903 36.09412233972701 7.523988709314135 O 0.0 **** -0.82
6356 H 1.1066229798951825 37.0850788589207 7.714784288393005 H 0.0 **** 0.41
6357 H 1.8921028547486467 35.90705912752517 8.201314637563652 H 0.0 **** 0.41
6358 O 44.15547232030676 2.1873125818887047 25.963724957585356 O 0.0 **** -0.82
6359 H 44.63912107024135 2.3567568306612827 26.798343426773926 H 0.0 **** 0.41
6360 H 44.51665083356122 2.74137977146934 25.194709008844313 H 0.0 **** 0.41
6361 O 48.35409107726487 35.911412333616454 44.68276510811401 O 0.0 **** -0.82
6362 H 47.652480712800156 35.96844789753703 43.923562378479964 H 0.0 **** 0.41
6363 H 48.635369604518395 36.891554564373514 44.873396535610354 H 0.0 **** 0.41
6364 O 28.42865023898478 12.434685056817512 10.423600484870796 O 0.0 **** -0.82
6365 H 28.179362460205503 13.300661623451708 10.002308301041047 H 0.0 **** 0.41
6366 H 27.68940713077165 12.107861070887557 11.12296967800706 H 0.0 **** 0.41
6367 O 24.939802739859168 47.09172507373218 17.929524460711765 O 0.0 **** -0.82
6368 H 24.720289319685516 47.97844956301261 18.377976134344024 H 0.0 **** 0.41
6369 H 25.77804662349946 47.20333285653233 17.387956564022694 H 0.0 **** 0.41
6370 O 32.80031190329856 42.90869396303748 35.819414763328346 O 0.0 **** -0.82
6371 H 32.586517245050786 42.480072670944764 36.70744800857761 H 0.0 **** 0.41
6372 H 32.71520432613208 43.86620616406398 35.977892322789344 H 0.0 **** 0.41
6373 O 45.81934051066961 35.2119448581883 47.33671726277871 O 0.0 **** -0.82
6374 H 45.59584952831389 34.29967273159577 47.76678336166345 H 0.0 **** 0.41
6375 H 45.81863655643046 35.055854915513116 46.36235181883998 H 0.0 **** 0.41
6376 O 10.719185784410744 15.164209113425787 14.114009872484225 O 0.0 **** -0.82
6377 H 10.402999722129268 16.170199633254647 14.289814365796856 H 0.0 **** 0.41
6378 H 10.487811397423872 14.623686032003137 14.904909117433762 H 0.0 **** 0.41
6379 O 32.32000649079404 23.861782127291285 49.34742530232321 O 0.0 **** -0.82
6380 H 31.64721177466545 24.401399268606408 49.941621268767655 H 0.0 **** 0.41
6381 H 32.406176795530314 24.51738902157656 48.55286550055075 H 0.0 **** 0.41
6382 O 4.50633016370536 24.205942094883184 23.83013905546457 O 0.0 **** -0.82
6383 H 4.630910128961032 23.19076107774084 24.021017149417773 H 0.0 **** 0.41
6384 H 4.403897857858077 24.664464821641424 24.767057082435784 H 0.0 **** 0.41
6385 O 34.13008292172158 40.12778147388156 32.43033818914981 O 0.0 **** -0.82
6386 H 33.89991654776342 39.222997998038785 32.80432852035555 H 0.0 **** 0.41
6387 H 33.24190716111174 40.463863952869794 32.15906122885586 H 0.0 **** 0.41
6388 O 10.338341643328746 42.55768026335573 41.55338179625256 O 0.0 **** -0.82
6389 H 9.53966828583492 41.99257162002255 41.810192592013216 H 0.0 **** 0.41
6390 H 9.9943682425531 43.4344033078272 41.184284493028564 H 0.0 **** 0.41
6391 O 28.620752491885362 13.027615299682871 21.95779575800272 O 0.0 **** -0.82
6392 H 27.770292990004776 13.272569327732908 22.428296017529565 H 0.0 **** 0.41
6393 H 28.87606130437912 13.743209323426843 21.315582219865078 H 0.0 **** 0.41
6394 O 14.32197783534577 37.55295653689301 3.1851767134466726 O 0.0 **** -0.82
6395 H 14.520539989820165 38.53842710741188 3.133637876567491 H 0.0 **** 0.41
6396 H 15.247740980565737 37.129119378926134 3.24649699292344 H 0.0 **** 0.41
6397 O 16.037988608735304 24.647472639235396 11.984274488808254 O 0.0 **** -0.82
6398 H 16.78682779138248 24.294724608813446 11.397656987121096 H 0.0 **** 0.41
6399 H 15.527156809515205 23.78591490544046 12.20348360894441 H 0.0 **** 0.41
6400 O 5.907485525187279 17.68287843022138 20.90487096354262 O 0.0 **** -0.82
6401 H 6.528038283687629 17.873479784981825 21.67837470688434 H 0.0 **** 0.41
6402 H 5.207666801218414 16.99177749424841 21.192090559512465 H 0.0 **** 0.41
6403 O 0.07084420004200354 38.928656917009555 28.003534702275505 O 0.0 **** -0.82
6404 H -0.5211833112825062 39.2218045814157 28.817589098941493 H 0.0 **** 0.41
6405 H -0.43248082719853187 39.388471549013424 27.233130140845333 H 0.0 **** 0.41
6406 O 24.181364943064526 41.31244528629813 8.267251697396016 O 0.0 **** -0.82
6407 H 24.110681824010033 41.42602266031432 7.2355646874979245 H 0.0 **** 0.41
6408 H 24.516309064995568 42.22919459449966 8.592047179059197 H 0.0 **** 0.41
6409 O 41.143436931273335 12.403083084656712 34.83764640594234 O 0.0 **** -0.82
6410 H 41.67120735573306 11.945474306806485 34.080191305119854 H 0.0 **** 0.41
6411 H 40.61463138681464 11.630275466830701 35.25693066497296 H 0.0 **** 0.41
6412 O 32.88191067898098 6.06465935465117 38.174700229058516 O 0.0 **** -0.82
6413 H 32.95029767473087 6.8220265915138825 38.90740650246236 H 0.0 **** 0.41
6414 H 33.39262115966349 5.280939830248251 38.588042942817744 H 0.0 **** 0.41
6415 O 16.306800051687475 12.199993236351006 27.035646511622854 O 0.0 **** -0.82
6416 H 15.995449558045223 13.081159365215449 26.646190148950367 H 0.0 **** 0.41
6417 H 15.47122809276361 11.791809860869094 27.499656428962332 H 0.0 **** 0.41
6418 O 14.601949555927364 26.117889975764882 24.23725348219243 O 0.0 **** -0.82
6419 H 14.720182566468257 25.60105794936365 25.08249461723281 H 0.0 **** 0.41
6420 H 15.22939217216461 26.911177896335076 24.307933263488195 H 0.0 **** 0.41
6421 O 23.075341934022703 49.172903363844526 4.431309594518893 O 0.0 **** -0.82
6422 H 22.495949590144868 49.74322445248166 3.7648705966441014 H 0.0 **** 0.41
6423 H 22.478168221206793 48.694384314061736 5.134054525971052 H 0.0 **** 0.41
6424 O 14.496567281423395 23.556636114006054 3.152228505997132 O 0.0 **** -0.82
6425 H 13.866556827861565 22.754860822447142 2.9138604836858883 H 0.0 **** 0.41
6426 H 14.17376635094233 23.81663174912363 4.123414732467555 H 0.0 **** 0.41
6427 O 44.75530671335618 32.103131771961124 15.480220991562687 O 0.0 **** -0.82
6428 H 44.82555276839907 32.121663893270984 14.50299111053995 H 0.0 **** 0.41
6429 H 45.3820835391714 32.806713737634205 15.908684961891522 H 0.0 **** 0.41
6430 O 44.30398692946597 35.77930078509797 26.770672136800293 O 0.0 **** -0.82
6431 H 44.204863760474076 36.75905001795408 26.538024093780287 H 0.0 **** 0.41
6432 H 44.13017681952983 35.69541425543168 27.736262775124988 H 0.0 **** 0.41
6433 O 15.200299211953919 38.015578843807695 49.04285756822011 O 0.0 **** -0.82
6434 H 15.32801437044013 38.86212441061302 49.51570663647093 H 0.0 **** 0.41
6435 H 16.113949006576163 37.624493590188074 48.90360686213442 H 0.0 **** 0.41
6436 O 3.8883387240973417 46.03124737401591 1.8665391863723655 O 0.0 **** -0.82
6437 H 3.6301026486900136 45.0516930724684 1.8013777688480173 H 0.0 **** 0.41
6438 H 3.29588744841084 46.26004594791787 2.657129457470205 H 0.0 **** 0.41
6439 O 18.50630286142035 28.909975599797587 47.93454492339437 O 0.0 **** -0.82
6440 H 18.968651704547085 28.376794688092172 47.20121538549364 H 0.0 **** 0.41
6441 H 17.85905309170441 29.513007735819198 47.55027864620743 H 0.0 **** 0.41
6442 O 15.970575284844202 14.232378954493424 15.018843495674112 O 0.0 **** -0.82
6443 H 16.09114359245686 14.885644797482598 15.779079945810775 H 0.0 **** 0.41
6444 H 15.802760331426994 13.3809629880403 15.430641805983099 H 0.0 **** 0.41
6445 O 17.85503911745653 7.316206925061898 10.379279089395403 O 0.0 **** -0.82
6446 H 16.971161239846897 7.306879716630846 10.859915057477245 H 0.0 **** 0.41
6447 H 18.38771686003798 6.538413872510191 10.797180517063943 H 0.0 **** 0.41
6448 O 30.769541097284435 9.222962499089302 48.78313745159456 O 0.0 **** -0.82
6449 H 30.265404946954877 8.692652908690151 48.115907875098586 H 0.0 **** 0.41
6450 H 31.584154170086467 8.660519924454595 48.95533640165863 H 0.0 **** 0.41
6451 O 35.0870088692657 17.79857517913483 44.55464250370915 O 0.0 **** -0.82
6452 H 35.417899767766144 18.557435741474876 43.9258494313097 H 0.0 **** 0.41
6453 H 34.04757777744702 17.879366632173316 44.6092026829245 H 0.0 **** 0.41
6454 O 37.80644127841726 11.499527270044524 46.2361382513022 O 0.0 **** -0.82
6455 H 38.46516998045982 11.347118022270202 46.97081301746914 H 0.0 **** 0.41
6456 H 37.20460453139273 12.253005809666842 46.46455227908155 H 0.0 **** 0.41
6457 O 39.758694715561134 30.016241197262584 47.7384447967467 O 0.0 **** -0.82
6458 H 40.365529947992236 30.588508698538526 48.23938262458998 H 0.0 **** 0.41
6459 H 39.88381287487249 29.06333015500042 48.05758142765847 H 0.0 **** 0.41
6460 O 18.627264031808554 38.79622123907667 37.04051541621895 O 0.0 **** -0.82
6461 H 18.628139757399175 39.42280256070299 36.200747842934014 H 0.0 **** 0.41
6462 H 18.897567723350328 37.92704254065136 36.67196732472588 H 0.0 **** 0.41
6463 O 28.453235440063636 34.89193173692251 28.143198109398835 O 0.0 **** -0.82
6464 H 28.87595979913682 35.70653279690472 27.738918819884017 H 0.0 **** 0.41
6465 H 28.070540604609125 35.17734138560261 29.046632359820336 H 0.0 **** 0.41
6466 O 47.38333072917154 5.1623458162894735 49.35445172288182 O 0.0 **** -0.82
6467 H 47.88769711580007 4.264318233245667 49.365610738677795 H 0.0 **** 0.41
6468 H 47.58364068425683 5.631990477979284 50.25424810254761 H 0.0 **** 0.41
6469 O 29.699476157619156 24.60294521178372 42.16558873292263 O 0.0 **** -0.82
6470 H 29.165153645918686 23.70071243572511 42.000742093605766 H 0.0 **** 0.41
6471 H 30.43354978082047 24.508828811005444 41.50371484281635 H 0.0 **** 0.41
6472 O 44.95741481047233 48.35034569893675 22.36981515869785 O 0.0 **** -0.82
6473 H 45.89355065876214 48.074767430539694 22.03539440169393 H 0.0 **** 0.41
6474 H 45.097986810055005 48.91929009483743 23.20078612849363 H 0.0 **** 0.41
6475 O 27.253737907128553 18.07397238449407 10.610137743536171 O 0.0 **** -0.82
6476 H 27.2220665041299 17.969523709914416 11.61725188460171 H 0.0 **** 0.41
6477 H 28.15455173374959 18.33795252578681 10.239158963079154 H 0.0 **** 0.41
6478 O 41.430257402851666 43.318230670079004 9.453039475966653 O 0.0 **** -0.82
6479 H 41.039648728569404 43.74315931525804 8.647173775834874 H 0.0 **** 0.41
6480 H 42.383502390366466 42.993154437201184 9.27221492952663 H 0.0 **** 0.41
6481 O 37.99196850574643 0.6177558375493665 44.408922526332105 O 0.0 **** -0.82
6482 H 38.20565784364289 0.39197972750572757 45.356424817389836 H 0.0 **** 0.41
6483 H 37.2590304742184 1.3075819493860923 44.42774922273158 H 0.0 **** 0.41
6484 O 37.76780384209854 30.613597336112786 10.954913707094143 O 0.0 **** -0.82
6485 H 37.494677078994506 30.0308675915985 10.174018802277345 H 0.0 **** 0.41
6486 H 38.76334488363801 30.52930513584589 11.11590182680699 H 0.0 **** 0.41
6487 O 24.73222075320109 34.26527817026951 39.64049840378256 O 0.0 **** -0.82
6488 H 23.980664213195467 34.09226162346308 38.95685713467396 H 0.0 **** 0.41
6489 H 25.5319812181763 34.3313431381325 39.02163638362896 H 0.0 **** 0.41
6490 O 12.036059638946105 46.892114266107086 17.779971021246674 O 0.0 **** -0.82
6491 H 11.423613354776457 46.131602369753665 17.646770920987663 H 0.0 **** 0.41
6492 H 12.157026234050674 47.08799782834265 18.780088213878365 H 0.0 **** 0.41
6493 O 1.80301494974249 26.207960834939367 3.1897842814712614 O 0.0 **** -0.82
6494 H 1.7650881629357542 25.172745494529398 3.143244342164886 H 0.0 **** 0.41
6495 H 1.3030216864779405 26.413609754665877 4.105306092860512 H 0.0 **** 0.41
6496 O 12.142021209873645 40.12074979787193 3.2952377104916097 O 0.0 **** -0.82
6497 H 11.251947001940922 40.57420050698049 2.958437443609699 H 0.0 **** 0.41
6498 H 12.065352175332734 39.97519898304109 4.250889267531482 H 0.0 **** 0.41
6499 O 35.786200733831194 21.377048200910934 10.215021561185605 O 0.0 **** -0.82
6500 H 35.56581628401799 21.238252085780957 11.203193830014948 H 0.0 **** 0.41
6501 H 35.573338681998884 22.36603223519137 10.15416448384309 H 0.0 **** 0.41
6502 O 24.115786409202258 38.26104190339704 29.050250691074712 O 0.0 **** -0.82
6503 H 24.446272143115685 38.22567417959031 28.095117564348698 H 0.0 **** 0.41
6504 H 23.155450726776373 38.56536186503285 28.936544402509767 H 0.0 **** 0.41
6505 O 5.60131712093913 30.839692370212077 11.187862087759484 O 0.0 **** -0.82
6506 H 5.677318224683628 30.022957856241078 10.565098193125529 H 0.0 **** 0.41
6507 H 4.779121488921333 30.60768426859137 11.70810423298962 H 0.0 **** 0.41
6508 O 31.594848769744182 35.01235121262306 47.307447182554284 O 0.0 **** -0.82
6509 H 32.40728665877399 34.49427324522932 47.67540983065428 H 0.0 **** 0.41
6510 H 30.84489273030929 34.36366758966654 47.038753961385446 H 0.0 **** 0.41
6511 O 41.06462737144429 9.821622012770357 25.653278066510396 O 0.0 **** -0.82
6512 H 41.41317603743326 9.462263487292736 26.5684243046 H 0.0 **** 0.41
6513 H 40.498389121540924 9.034540691130607 25.260979516517438 H 0.0 **** 0.41
6514 O 9.771657029621405 20.012164794272053 25.204696149524263 O 0.0 **** -0.82
6515 H 10.509520913870332 20.548107864243168 24.742713117323728 H 0.0 **** 0.41
6516 H 10.110128158245073 19.00827802898725 25.38953909345691 H 0.0 **** 0.41
6517 O 42.43057845170941 24.006645286367686 31.572200589394896 O 0.0 **** -0.82
6518 H 41.81822329343924 24.108219831406565 30.839677126887086 H 0.0 **** 0.41
6519 H 43.35513849346084 24.042566285972164 31.103860732357347 H 0.0 **** 0.41
6520 O 37.33124339667622 42.06277477446205 40.8437624839449 O 0.0 **** -0.82
6521 H 36.47462771052927 42.623079842275885 40.94832380263135 H 0.0 **** 0.41
6522 H 37.521238870843746 42.41765157035318 39.9364268431608 H 0.0 **** 0.41
6523 O 46.300788928501376 28.47765790847025 38.02745490000184 O 0.0 **** -0.82
6524 H 46.72160118661293 28.912873232507707 38.882940114289205 H 0.0 **** 0.41
6525 H 45.40887599855881 28.922557665953363 38.04776342121487 H 0.0 **** 0.41
6526 O 35.96727253495912 1.8346154829120707 31.20447965534709 O 0.0 **** -0.82
6527 H 36.14405967851577 0.8092549388634893 31.095158773163593 H 0.0 **** 0.41
6528 H 35.089847248429834 2.020565851804278 30.64835222989237 H 0.0 **** 0.41
6529 O 49.78411548940723 7.368724107098403 30.25303497525995 O 0.0 **** -0.82
6530 H 49.081413488241125 6.8491614213055865 29.740506145396296 H 0.0 **** 0.41
6531 H 50.11457266364751 8.06550586808062 29.65785125576477 H 0.0 **** 0.41
6532 O 47.30833287803769 39.56207629272234 8.802361207921884 O 0.0 **** -0.82
6533 H 47.136242825352774 40.50089975694927 8.892537242768817 H 0.0 **** 0.41
6534 H 47.4672786668952 39.24695905047699 9.763039874575782 H 0.0 **** 0.41
6535 O 10.274762533785816 20.310229522290392 3.6635605273881566 O 0.0 **** -0.82
6536 H 10.147511712113138 19.944344191658406 2.6645224933893843 H 0.0 **** 0.41
6537 H 10.20588592987457 19.48091287724876 4.2710683567831325 H 0.0 **** 0.41
6538 O 5.006430230255489 8.52019155367411 22.7045657275146 O 0.0 **** -0.82
6539 H 5.820009194978965 9.06144538499639 22.799058736385224 H 0.0 **** 0.41
6540 H 4.826121974597129 8.14783122397192 23.61371442627663 H 0.0 **** 0.41
6541 O 2.3646880325459634 4.279425376357974 11.027419725434651 O 0.0 **** -0.82
6542 H 1.3615971531924487 4.224897480997136 11.259778336747955 H 0.0 **** 0.41
6543 H 2.7509100651837883 3.460383152632599 11.54194574996916 H 0.0 **** 0.41
6544 O 39.5199684237162 43.142471717622044 1.4595149207444038 O 0.0 **** -0.82
6545 H 38.53105445980055 43.24240465414767 1.5907898045703561 H 0.0 **** 0.41
6546 H 39.84462078721176 43.92744135967401 0.884340820524244 H 0.0 **** 0.41
6547 O 22.231883636758567 28.450813211631 33.91804778264885 O 0.0 **** -0.82
6548 H 22.574709596942625 28.9612411446913 34.68674391866703 H 0.0 **** 0.41
6549 H 22.667224299544998 27.5374592320357 33.821354603510464 H 0.0 **** 0.41
6550 O 2.8155716911696373 45.36708455480807 9.106439574932907 O 0.0 **** -0.82
6551 H 3.042255768974968 46.35895375302585 8.998125244122548 H 0.0 **** 0.41
6552 H 3.57028147353045 44.723479393714065 8.932971360477069 H 0.0 **** 0.41
6553 O 25.302890957944136 2.835352078178473 45.15564287345121 O 0.0 **** -0.82
6554 H 24.641430525087188 3.29397291862091 45.766921215887955 H 0.0 **** 0.41
6555 H 26.09438714507459 2.591877307922494 45.72481137310058 H 0.0 **** 0.41
6556 O 46.59163953966246 23.98930706014858 12.351788924162264 O 0.0 **** -0.82
6557 H 47.382579442068106 24.651731321050377 12.25540100545416 H 0.0 **** 0.41
6558 H 46.42910677456828 24.023919170685826 13.331954653986912 H 0.0 **** 0.41
6559 O 13.679280261269193 25.686453638739092 1.438810839622385 O 0.0 **** -0.82
6560 H 12.712695083374479 25.461354072725104 1.5771405594329397 H 0.0 **** 0.41
6561 H 14.17393550977035 24.950085471829766 1.948652922961145 H 0.0 **** 0.41
6562 O 44.44407207661508 3.5972332171108596 18.316591627168368 O 0.0 **** -0.82
6563 H 44.864470073011745 4.049135578477922 19.10729229386673 H 0.0 **** 0.41
6564 H 44.677899192430715 2.605647336588973 18.477963728799107 H 0.0 **** 0.41
6565 O 7.285218178145922 40.3499293556645 16.49885942812541 O 0.0 **** -0.82
6566 H 7.277912280506491 39.95587377777682 15.60343865488846 H 0.0 **** 0.41
6567 H 8.218788205768448 40.717775580751365 16.660581598599816 H 0.0 **** 0.41
6568 O 46.27587781763654 18.87283725470684 10.794324464420647 O 0.0 **** -0.82
6569 H 45.47258054922643 19.226679113977493 10.266987076588103 H 0.0 **** 0.41
6570 H 46.78834971510962 19.688408627522698 11.126030909024445 H 0.0 **** 0.41
6571 O 41.3374017503399 12.689995506311345 25.488888895002734 O 0.0 **** -0.82
6572 H 40.98683905892758 12.668800977165942 24.56623597149228 H 0.0 **** 0.41
6573 H 41.36194351287142 11.685571306531601 25.75860410443084 H 0.0 **** 0.41
6574 O 5.665500107898102 47.21700953370932 18.135348255863935 O 0.0 **** -0.82
6575 H 5.823453943785403 47.061258944094156 19.109387212467315 H 0.0 **** 0.41
6576 H 5.938164861916486 48.16027066339427 18.005261525559913 H 0.0 **** 0.41
6577 O 45.1824750202888 3.3990395929621897 44.452585496929544 O 0.0 **** -0.82
6578 H 45.224085568918206 3.021045957138689 43.45467801625956 H 0.0 **** 0.41
6579 H 45.4983167234153 2.594360663219419 45.011166638680606 H 0.0 **** 0.41
6580 O 14.397288857842275 41.61669632789601 43.430154729618714 O 0.0 **** -0.82
6581 H 13.985445544521202 41.53889446144704 42.49511568550315 H 0.0 **** 0.41
6582 H 14.761201148621732 42.55575840418742 43.57126859195549 H 0.0 **** 0.41
6583 O 30.948467746661482 17.716219636633667 3.472159451789736 O 0.0 **** -0.82
6584 H 31.21574706999198 18.653637072427074 3.6379963458766866 H 0.0 **** 0.41
6585 H 31.052442573480075 17.550569119589596 2.505463914809077 H 0.0 **** 0.41
6586 O 39.57176964566793 26.40548266870007 46.87744706219975 O 0.0 **** -0.82
6587 H 39.636090486364665 26.901034042219447 45.97857323215423 H 0.0 **** 0.41
6588 H 39.87660584690974 25.506555041282958 46.659900461155 H 0.0 **** 0.41
6589 O 21.09739627879252 20.800855758514373 16.55344306110881 O 0.0 **** -0.82
6590 H 21.261186779950446 20.96615274914656 17.551156508661247 H 0.0 **** 0.41
6591 H 20.57268671346855 19.95297817238385 16.694953142330785 H 0.0 **** 0.41
6592 O 29.159396712364114 2.9785136226439235 8.509053887359986 O 0.0 **** -0.82
6593 H 28.95221535766098 3.9761987199129365 8.755140722313154 H 0.0 **** 0.41
6594 H 30.165446974963327 3.011861773080902 8.247041081868247 H 0.0 **** 0.41
6595 O 20.07856175693769 5.541723863906934 24.85237814407833 O 0.0 **** -0.82
6596 H 20.058658256419744 6.4539181368742895 25.223457428518 H 0.0 **** 0.41
6597 H 21.00124408362906 5.50557774429978 24.41225776724415 H 0.0 **** 0.41
6598 O 20.51900184151558 14.73717460136406 3.106349680252171 O 0.0 **** -0.82
6599 H 19.882427281724144 15.01097400337683 2.3463121951876187 H 0.0 **** 0.41
6600 H 20.391872736801144 15.302337365256633 3.917766324017019 H 0.0 **** 0.41
6601 O 25.25366860356158 44.730378452833065 41.592297586053625 O 0.0 **** -0.82
6602 H 25.921324681955717 44.98909234834544 42.32897224803459 H 0.0 **** 0.41
6603 H 25.785270137606314 44.025094431957555 41.06533403752439 H 0.0 **** 0.41
6604 O 9.964935885228538 21.80500648264144 40.062099376609076 O 0.0 **** -0.82
6605 H 10.792873279571777 21.254775200905698 39.79490846919219 H 0.0 **** 0.41
6606 H 10.296672740126109 22.724105678101505 40.160760710274275 H 0.0 **** 0.41
6607 O 37.42836729762873 43.046411284342184 38.337752432058835 O 0.0 **** -0.82
6608 H 36.71283816206994 42.880077424455436 37.644073807639444 H 0.0 **** 0.41
6609 H 37.552148545233294 44.06007198355514 38.325536847291346 H 0.0 **** 0.41
6610 O 26.32913484513247 49.4417807914495 34.13573548103773 O 0.0 **** -0.82
6611 H 26.351920883089548 49.61994880128602 33.10517641664745 H 0.0 **** 0.41
6612 H 25.692585058903056 50.20823800479317 34.38423897872108 H 0.0 **** 0.41
6613 O 1.4883754619394836 7.225800320061344 23.996699977638553 O 0.0 **** -0.82
6614 H 1.9616548234415205 6.9063057352820305 23.15481332062535 H 0.0 **** 0.41
6615 H 1.3824941156783694 6.347854314846313 24.547082714072086 H 0.0 **** 0.41
6616 O 37.97525533240876 17.521777390232565 28.79853886835445 O 0.0 **** -0.82
6617 H 37.04278362890402 17.542075665630964 28.396921103475396 H 0.0 **** 0.41
6618 H 38.27374127908324 16.592136361248098 29.107054202578553 H 0.0 **** 0.41
6619 O 42.32310637935246 41.0088812337297 38.03931350945049 O 0.0 **** -0.82
6620 H 43.10006086679385 40.37270380406818 37.86022916850059 H 0.0 **** 0.41
6621 H 42.52724793678869 41.77912730882947 37.34236030506775 H 0.0 **** 0.41
6622 O 6.722346672105707 26.68984071288351 16.45052527847659 O 0.0 **** -0.82
6623 H 5.803141635772281 26.571095956334034 16.947862974126537 H 0.0 **** 0.41
6624 H 7.420932595840927 26.41176038910652 17.0823879148895 H 0.0 **** 0.41
6625 O 6.305503684157436 4.147961807757532 27.83746400345956 O 0.0 **** -0.82
6626 H 6.7037658968515785 5.038274774367781 27.746473702060797 H 0.0 **** 0.41
6627 H 5.919626315694032 3.946638040163845 26.933318271653064 H 0.0 **** 0.41
6628 O 23.764979891431697 30.372078918801023 35.58623364954826 O 0.0 **** -0.82
6629 H 24.475337655969454 29.868143108561114 35.02494993298332 H 0.0 **** 0.41
6630 H 24.307691475003367 30.52457068009538 36.42409802600341 H 0.0 **** 0.41
6631 O 43.40524597744623 43.04696016196701 21.38792290050285 O 0.0 **** -0.82
6632 H 43.88493635027659 43.33858368379199 22.274779177216438 H 0.0 **** 0.41
6633 H 44.030544392565666 42.361372564940076 20.99196626341461 H 0.0 **** 0.41
6634 O 25.120614131756657 35.58609241123975 13.205697571349301 O 0.0 **** -0.82
6635 H 25.28936799915922 35.60872086320374 12.204391201357987 H 0.0 **** 0.41
6636 H 25.626758097515765 34.745098324290765 13.561757882189925 H 0.0 **** 0.41
6637 O 0.015822849659592464 29.01691759398426 9.673712674486405 O 0.0 **** -0.82
6638 H 0.2833011408054844 30.00275865789946 9.79244780907564 H 0.0 **** 0.41
6639 H -0.9377118074351785 29.0627611195456 9.987003896470052 H 0.0 **** 0.41
6640 O 29.9836874056445 32.57798106746115 5.647624095221536 O 0.0 **** -0.82
6641 H 29.9956189946809 32.52491988748697 4.613182184915689 H 0.0 **** 0.41
6642 H 30.796393338913227 32.10246079295722 6.046174790605354 H 0.0 **** 0.41
6643 O 40.02606351374479 35.62152735147578 8.6563294151515 O 0.0 **** -0.82
6644 H 39.856918211522135 34.80438922400382 8.12539253283694 H 0.0 **** 0.41
6645 H 39.23704663561249 36.26963488350249 8.625782944905593 H 0.0 **** 0.41
6646 O 27.73966577741715 23.797745262377987 22.06013400926616 O 0.0 **** -0.82
6647 H 27.207089071053392 23.64113849888232 22.92827869090042 H 0.0 **** 0.41
6648 H 27.530286542622484 24.67844115735896 21.715350293740915 H 0.0 **** 0.41
6649 O 12.298188015298265 45.62682934173129 39.12144509676009 O 0.0 **** -0.82
6650 H 12.980268880128953 45.26260315714989 39.77930724006922 H 0.0 **** 0.41
6651 H 12.84590903411521 45.74367398620106 38.24556415426945 H 0.0 **** 0.41
6652 O 6.755865299202783 10.240661303416104 34.820891719298906 O 0.0 **** -0.82
6653 H 7.702082257661315 10.360827624985603 35.16516328206153 H 0.0 **** 0.41
6654 H 6.757447118249663 9.491044149502173 34.15477198382817 H 0.0 **** 0.41
6655 O 3.714198231010485 25.32971321811966 26.27854434315227 O 0.0 **** -0.82
6656 H 3.8396748112004317 26.3525909380116 26.113343612864966 H 0.0 **** 0.41
6657 H 3.585960362211459 25.22446871191008 27.2745961568738 H 0.0 **** 0.41
6658 O 19.003425946797254 46.84036686127287 3.9431309167770054 O 0.0 **** -0.82
6659 H 19.04182439146517 46.138081557499994 3.203089024135724 H 0.0 **** 0.41
6660 H 18.35289217379404 47.522923452202555 3.6771745575032098 H 0.0 **** 0.41
6661 O 10.159284289885205 26.486853959980678 24.50299359288113 O 0.0 **** -0.82
6662 H 10.194658334096598 25.642131154780433 23.972894434734922 H 0.0 **** 0.41
6663 H 9.202294399737328 26.79315679552596 24.405874747597508 H 0.0 **** 0.41
6664 O 12.236772548264625 42.155264904798365 38.43251033042976 O 0.0 **** -0.82
6665 H 11.291076132562722 42.16519865302611 38.031288047728296 H 0.0 **** 0.41
6666 H 12.773396013326462 42.79135657662244 37.811908206053275 H 0.0 **** 0.41
6667 O 25.402832731275232 16.974303870686736 7.068749178915157 O 0.0 **** -0.82
6668 H 24.855915008823978 17.744025664852344 7.512174184002056 H 0.0 **** 0.41
6669 H 25.503520870323587 17.198032928085613 6.051586455762374 H 0.0 **** 0.41
6670 O 7.609349981115244 48.27862929875057 15.572491272383573 O 0.0 **** -0.82
6671 H 7.441194313581327 48.84030473259723 16.39499164890935 H 0.0 **** 0.41
6672 H 7.657598343578783 47.30385065298379 15.819071536252798 H 0.0 **** 0.41
6673 O 13.940437847018346 47.27556193234572 15.34205500448229 O 0.0 **** -0.82
6674 H 13.285958604541415 46.930922351428315 16.02976341744791 H 0.0 **** 0.41
6675 H 14.625267757451072 47.907849572519574 15.781566962210377 H 0.0 **** 0.41
6676 O 2.4156901728241786 15.23965971853712 19.330078783015367 O 0.0 **** -0.82
6677 H 2.072086159350909 16.188649708201698 19.484986966850144 H 0.0 **** 0.41
6678 H 1.8806947202393924 14.565324904147255 19.938135526993523 H 0.0 **** 0.41
6679 O 20.085928692494832 40.347487427617345 22.774315524081107 O 0.0 **** -0.82
6680 H 19.888940749556827 40.95329639387858 23.53626927503355 H 0.0 **** 0.41
6681 H 19.617144693784333 39.48972660240438 23.034496000127497 H 0.0 **** 0.41
6682 O 22.249667632726727 31.182354552506876 6.656423049046853 O 0.0 **** -0.82
6683 H 23.189079714489125 31.11103836004821 6.30799461697713 H 0.0 **** 0.41
6684 H 22.168478903701626 30.376820359678092 7.232783546818284 H 0.0 **** 0.41
6685 O 7.138992149799535 8.770203874084793 38.02118618523764 O 0.0 **** -0.82
6686 H 7.961886552193263 8.602840861424028 38.549072829399776 H 0.0 **** 0.41
6687 H 6.921928547635652 9.762526800002831 37.85475560347369 H 0.0 **** 0.41
6688 O 19.30042114264127 2.141607394936514 26.836078038304866 O 0.0 **** -0.82
6689 H 19.044825349753093 2.688333300726839 26.045158737359536 H 0.0 **** 0.41
6690 H 19.198748369403695 2.75037975930249 27.616970877003475 H 0.0 **** 0.41
6691 O 16.963939395334137 11.142451912921477 48.111350659116844 O 0.0 **** -0.82
6692 H 16.11176122895138 10.72834125304446 48.48376175711468 H 0.0 **** 0.41
6693 H 17.25723332290309 10.465722561872708 47.32101363764205 H 0.0 **** 0.41
6694 O 31.717020399573784 1.5077870309091423 20.97601454316552 O 0.0 **** -0.82
6695 H 32.15794522334132 2.1786243822681186 20.378857019607636 H 0.0 **** 0.41
6696 H 32.33552487304883 0.8062343936348952 20.707949472610238 H 0.0 **** 0.41
6697 O 25.473545885810182 4.274380800393402 6.628444664303913 O 0.0 **** -0.82
6698 H 25.020580897640983 3.5196613729167296 7.082042364346149 H 0.0 **** 0.41
6699 H 26.21767523061014 3.9285476189649984 5.968615849802488 H 0.0 **** 0.41
6700 O 4.971548028449503 5.20100035389288 34.65636129194436 O 0.0 **** -0.82
6701 H 5.447540314885909 5.868104070443344 35.279704399338705 H 0.0 **** 0.41
6702 H 5.306302015505607 4.331383513048138 34.906264418304815 H 0.0 **** 0.41
6703 O 40.1137301733099 40.11123915621735 15.502936676101076 O 0.0 **** -0.82
6704 H 39.97101916014225 40.168550340667196 14.502983769189125 H 0.0 **** 0.41
6705 H 39.270214992691784 40.49548338762543 15.95386412079293 H 0.0 **** 0.41
6706 O 44.646125319249315 21.881650295087752 43.24576999656418 O 0.0 **** -0.82
6707 H 45.27833528616001 22.506160796462314 42.74636141476765 H 0.0 **** 0.41
6708 H 44.7767406698962 22.073066332342524 44.29280239640821 H 0.0 **** 0.41
6709 O 29.38309856642756 14.398445349337727 34.16692671947376 O 0.0 **** -0.82
6710 H 29.225162907875358 14.431978739833951 33.21427840693728 H 0.0 **** 0.41
6711 H 28.693900269988738 15.008375325564245 34.54838077562701 H 0.0 **** 0.41
6712 O 41.407702564924634 49.25003462148477 38.1604239615804 O 0.0 **** -0.82
6713 H 40.90726401438151 48.86472647831972 37.34170700288295 H 0.0 **** 0.41
6714 H 41.63793226499893 50.26343703255386 37.94440302730967 H 0.0 **** 0.41
6715 O 35.68036401679537 3.824341293222801 35.286734751541076 O 0.0 **** -0.82
6716 H 35.179498996204714 3.0600390038206626 35.739414911706795 H 0.0 **** 0.41
6717 H 35.05879515087889 4.277744153463374 34.61736691568135 H 0.0 **** 0.41
6718 O 3.8403748446803547 48.253899952881554 30.20714854212052 O 0.0 **** -0.82
6719 H 4.616341007114968 48.70936075413044 29.608340749123016 H 0.0 **** 0.41
6720 H 4.108515321819915 48.50236569667149 31.17834071644943 H 0.0 **** 0.41
6721 O 40.41748434076103 7.8701951653069955 45.903113345555035 O 0.0 **** -0.82
6722 H 40.621879433194884 7.7903501192136915 44.91521472706066 H 0.0 **** 0.41
6723 H 39.47795011516874 8.215478771604396 45.870669600572825 H 0.0 **** 0.41
6724 O 13.810685317404063 1.5025455877443528 14.889607183900075 O 0.0 **** -0.82
6725 H 13.99184434368551 1.467361580325468 15.967479222126187 H 0.0 **** 0.41
6726 H 14.087672407949052 0.5653099364820865 14.656623976211336 H 0.0 **** 0.41
6727 O 38.519647904255756 2.8324987697678226 25.49476229307558 O 0.0 **** -0.82
6728 H 37.98083001084194 2.4188452502166484 26.21328032237018 H 0.0 **** 0.41
6729 H 39.139586456246874 3.445626390761892 25.960891589658473 H 0.0 **** 0.41
6730 O 28.572564709085206 13.786660367879996 31.42462274515822 O 0.0 **** -0.82
6731 H 27.9305015895474 13.185818006510118 31.87424588896515 H 0.0 **** 0.41
6732 H 28.028651038098047 14.58058240525385 31.076523181702527 H 0.0 **** 0.41
6733 O 25.639760955381693 14.27890631771254 34.131838382075685 O 0.0 **** -0.82
6734 H 25.787127079156782 13.314353329830254 34.45952933265128 H 0.0 **** 0.41
6735 H 25.010025784334456 14.101574356108458 33.3467911015401 H 0.0 **** 0.41
6736 O 26.922716874464754 48.760200683944646 2.9106921712110427 O 0.0 **** -0.82
6737 H 26.856022034552794 49.05427439808653 3.8991143880947567 H 0.0 **** 0.41
6738 H 27.21360024159233 49.620715217418244 2.4847604306475595 H 0.0 **** 0.41
6739 O 47.0405306648295 11.242091672674329 6.669154894146463 O 0.0 **** -0.82
6740 H 47.04343426233075 10.551784248302893 5.9439297459741205 H 0.0 **** 0.41
6741 H 47.57597301426412 10.815104849550774 7.441923938854684 H 0.0 **** 0.41
6742 O 33.511833101515755 47.2026144307309 40.595197159025176 O 0.0 **** -0.82
6743 H 33.647539604152804 46.79168764318202 41.50776225773986 H 0.0 **** 0.41
6744 H 32.51753187477698 47.07726058187162 40.478081096594345 H 0.0 **** 0.41
6745 O 19.666128895298932 14.238240774176356 17.35004454895127 O 0.0 **** -0.82
6746 H 18.733269469293937 14.644273143778852 17.17053216614929 H 0.0 **** 0.41
6747 H 20.269189058222647 14.82897323360096 16.805760877543644 H 0.0 **** 0.41
6748 O 30.733539368492142 10.13955654729828 43.6502195735954 O 0.0 **** -0.82
6749 H 31.214210830107323 10.907970508119632 44.10388313797911 H 0.0 **** 0.41
6750 H 30.182172328239048 10.483055325449763 42.89189725034535 H 0.0 **** 0.41
6751 O 35.10605757277401 49.21283412233017 39.45461575436816 O 0.0 **** -0.82
6752 H 34.516631549741525 50.00861623428685 39.440203255258304 H 0.0 **** 0.41
6753 H 34.42254510633277 48.55096169042184 39.81437685933588 H 0.0 **** 0.41
6754 O 46.67301244691578 11.62801593723561 44.12512890162839 O 0.0 **** -0.82
6755 H 47.32231081456967 11.113220026359386 43.512493095696605 H 0.0 **** 0.41
6756 H 46.39267110965781 10.807458919121686 44.716396094885816 H 0.0 **** 0.41
6757 O 22.043404928397123 40.76164045782206 17.709311443056265 O 0.0 **** -0.82
6758 H 22.032626706751895 39.77154309377543 17.48023799243161 H 0.0 **** 0.41
6759 H 22.65478683510923 40.95706015038306 18.507825637213074 H 0.0 **** 0.41
6760 O 40.83390357885396 21.744088071441723 3.4839857651317487 O 0.0 **** -0.82
6761 H 40.98964622920729 21.66445713843696 4.4987777023946975 H 0.0 **** 0.41
6762 H 41.64336775258897 22.300750221774152 3.106235265213911 H 0.0 **** 0.41
6763 O 22.815470348735165 27.7640073437568 4.461240523058137 O 0.0 **** -0.82
6764 H 23.561585215806158 28.305773925460898 4.064739605385597 H 0.0 **** 0.41
6765 H 23.19044362808743 26.831323438774703 4.570719761064382 H 0.0 **** 0.41
6766 O 9.769473621463128 3.5566447632198646 32.798102008457754 O 0.0 **** -0.82
6767 H 9.989014371877524 4.51810194896148 32.58848593950919 H 0.0 **** 0.41
6768 H 8.794996198475836 3.4150401149747083 32.62012853134154 H 0.0 **** 0.41
6769 O 19.251029721288823 42.3899801471426 12.755814852040615 O 0.0 **** -0.82
6770 H 18.230953894499656 42.51062925592514 12.776644184709298 H 0.0 **** 0.41
6771 H 19.733605923394183 43.27157750854645 12.44806895167033 H 0.0 **** 0.41
6772 O 38.425591506055845 46.621672918278534 45.55082966068304 O 0.0 **** -0.82
6773 H 37.98721323897098 47.3901343552416 45.01648202466154 H 0.0 **** 0.41
6774 H 39.43619140636606 46.77884545632238 45.618383625356245 H 0.0 **** 0.41
6775 O 40.46392701208427 40.34717105323686 31.833629368358444 O 0.0 **** -0.82
6776 H 39.9865121389275 39.94233568379655 31.02997916702429 H 0.0 **** 0.41
6777 H 41.00900450637209 39.57473204184434 32.23458162157368 H 0.0 **** 0.41
6778 O 24.962767192819705 11.672642457679785 8.033290833277471 O 0.0 **** -0.82
6779 H 25.14155282019106 12.621504483403747 7.674011590935287 H 0.0 **** 0.41
6780 H 25.720703198176707 11.119274545646547 7.640545895250528 H 0.0 **** 0.41
6781 O 47.44360739561971 43.63313315272777 22.220026245387874 O 0.0 **** -0.82
6782 H 48.20151722555713 43.447156110963896 22.87347506003801 H 0.0 **** 0.41
6783 H 47.85819620690985 44.14089302364336 21.423717680713615 H 0.0 **** 0.41
6784 O 10.55680864185011 34.35260630548994 47.296763125474456 O 0.0 **** -0.82
6785 H 11.46709466457942 34.48422307706783 47.00015624397998 H 0.0 **** 0.41
6786 H 10.666291649867636 33.589280853354936 47.98071372606506 H 0.0 **** 0.41
6787 O 16.780236849995344 35.97951115642239 12.934739277088406 O 0.0 **** -0.82
6788 H 16.23066163588247 36.389396290023 12.128985563408769 H 0.0 **** 0.41
6789 H 17.138816440678088 35.01641497898149 12.690855950598051 H 0.0 **** 0.41
6790 O 23.08174994997751 30.307491494672025 23.623566634223025 O 0.0 **** -0.82
6791 H 23.68903930158795 29.53352319956211 23.433059677450963 H 0.0 **** 0.41
6792 H 22.51167773601649 30.452904953154015 22.80823237463175 H 0.0 **** 0.41
6793 O 49.170595631827645 36.3241225648833 39.35949084542935 O 0.0 **** -0.82
6794 H 49.54119723787703 36.34512820697691 40.293175454737835 H 0.0 **** 0.41
6795 H 48.48377033559764 35.60199624970346 39.5657450389009 H 0.0 **** 0.41
6796 O 2.4627114505326375 29.18674891586947 30.14465634253235 O 0.0 **** -0.82
6797 H 2.67691717202392 30.094072931371404 29.703461166240697 H 0.0 **** 0.41
6798 H 1.500054421056518 28.945239115139998 29.858872275477623 H 0.0 **** 0.41
6799 O 27.13957190994431 2.952505104136904 27.091107293208694 O 0.0 **** -0.82
6800 H 27.768307659717838 3.633205330165481 26.686827848288544 H 0.0 **** 0.41
6801 H 26.321481695213247 3.371283655837317 27.574771479239857 H 0.0 **** 0.41
6802 O 36.644915434885135 11.72855847790801 4.844170652813814 O 0.0 **** -0.82
6803 H 36.40953297636773 10.758418586097704 4.650669132985488 H 0.0 **** 0.41
6804 H 37.40041742188775 11.84918669902384 4.157919687166303 H 0.0 **** 0.41
6805 O 31.961456428494433 38.012226713676874 28.89352800275037 O 0.0 **** -0.82
6806 H 32.507980623424295 37.372166669405985 29.392142898600703 H 0.0 **** 0.41
6807 H 32.50123652716663 38.1527233729639 28.098053011170048 H 0.0 **** 0.41
6808 O 15.690242515384043 42.746761352481776 20.432127296654144 O 0.0 **** -0.82
6809 H 15.846246239193519 42.73418952018888 19.40780717487165 H 0.0 **** 0.41
6810 H 14.708251917302945 42.822290574152795 20.615451630809957 H 0.0 **** 0.41
6811 O 37.36948152480415 37.31345964582786 35.21817157163006 O 0.0 **** -0.82
6812 H 38.3602302354542 37.344505620340556 35.438518280768726 H 0.0 **** 0.41
6813 H 37.073624842890716 38.16227284049105 35.56588277944358 H 0.0 **** 0.41
6814 O 47.69655281427826 18.659856601646904 23.42321012364789 O 0.0 **** -0.82
6815 H 47.40076791809667 19.492116513228694 23.841604557834202 H 0.0 **** 0.41
6816 H 47.23399953651288 18.639189813354353 22.520925886911954 H 0.0 **** 0.41
6817 O 2.756950420033675 20.874621931239272 4.6500878705409034 O 0.0 **** -0.82
6818 H 2.56296234616336 21.853954070223583 4.823589616425098 H 0.0 **** 0.41
6819 H 2.2696077439267555 20.34362795166872 5.3484087438330485 H 0.0 **** 0.41
6820 O 40.7336542646481 38.9389253619966 24.588834626485152 O 0.0 **** -0.82
6821 H 40.540490514816845 39.407628367213775 23.715775288886192 H 0.0 **** 0.41
6822 H 41.51267740438516 38.319441120156945 24.340880931640882 H 0.0 **** 0.41
6823 O 2.146552058316774 25.61281719168794 38.165344077028024 O 0.0 **** -0.82
6824 H 2.34426329016245 26.55776592478485 38.48809924491465 H 0.0 **** 0.41
6825 H 3.0367695807672614 25.169619764103263 38.36321429361409 H 0.0 **** 0.41
6826 O 42.44154650176154 11.255950737893166 41.75107534513542 O 0.0 **** -0.82
6827 H 42.967839251554686 11.142674186943204 42.62322904597778 H 0.0 **** 0.41
6828 H 43.15755902792736 11.603698019234635 41.19222744839931 H 0.0 **** 0.41
6829 O 12.156687575026423 22.207630038088247 15.408504037027248 O 0.0 **** -0.82
6830 H 12.531583393228102 22.499256500752054 14.535709917882949 H 0.0 **** 0.41
6831 H 12.544888158457525 22.883559089610756 16.080080333612237 H 0.0 **** 0.41
6832 O 20.115620409905382 12.079866011892179 4.0022521195991345 O 0.0 **** -0.82
6833 H 20.20940613937932 13.081525005624588 3.854717862794814 H 0.0 **** 0.41
6834 H 20.731076565750993 11.747256204980603 3.306783027255726 H 0.0 **** 0.41
6835 O 44.751321833072566 21.8808579324157 10.386987105477644 O 0.0 **** -0.82
6836 H 44.309507542699635 21.300730567406973 9.690410823987008 H 0.0 **** 0.41
6837 H 45.48234601798491 22.478280463037095 10.062916407589668 H 0.0 **** 0.41
6838 O 12.345456641907486 33.6366447543857 38.71098149584545 O 0.0 **** -0.82
6839 H 11.96028807819545 33.06959507219939 39.39614143566951 H 0.0 **** 0.41
6840 H 12.422733294227669 34.54841393870418 39.16696855330303 H 0.0 **** 0.41
6841 O 9.991781609127703 10.036127827950189 13.658202779236618 O 0.0 **** -0.82
6842 H 9.907663238883076 11.009494130895916 13.273239320077678 H 0.0 **** 0.41
6843 H 9.133409970112695 9.907365655790606 14.273800385424181 H 0.0 **** 0.41
6844 O 17.590773098466325 18.200416516809558 17.442799164734012 O 0.0 **** -0.82
6845 H 17.20483863341961 18.194338641295854 16.46413507205429 H 0.0 **** 0.41
6846 H 18.621326100005742 18.1965660669369 17.467906940466904 H 0.0 **** 0.41
6847 O 48.668072575164146 16.913914377219868 25.080087727631522 O 0.0 **** -0.82
6848 H 48.28981009045789 17.642033602265936 24.525123349116612 H 0.0 **** 0.41
6849 H 48.34510776430838 17.174743020748803 26.0090643876117 H 0.0 **** 0.41
6850 O 3.421682834486763 35.62819862520968 5.706727482095417 O 0.0 **** -0.82
6851 H 2.5678838309252487 35.10391367149122 5.572864875601368 H 0.0 **** 0.41
6852 H 3.186983849716366 36.64636004512839 5.7652960292289706 H 0.0 **** 0.41
6853 O 29.427692961287484 22.06961523407749 26.07744561043632 O 0.0 **** -0.82
6854 H 28.978418771623794 22.753373564244654 26.716138613903418 H 0.0 **** 0.41
6855 H 29.807789973606052 22.536433292146263 25.252248363724576 H 0.0 **** 0.41
6856 O 36.16581811428024 28.163174250863893 43.447889060142465 O 0.0 **** -0.82
6857 H 35.46872610034566 28.32666221807118 44.19648641788361 H 0.0 **** 0.41
6858 H 36.879209011774414 27.47667211251185 43.77464463988908 H 0.0 **** 0.41
6859 O 2.0290823917783207 38.16736709050139 25.06940243244137 O 0.0 **** -0.82
6860 H 2.000605601757331 37.88398024310905 26.009276358226202 H 0.0 **** 0.41
6861 H 1.2299500999061022 37.61515868241207 24.760337495930536 H 0.0 **** 0.41
6862 O 25.87420005920087 41.172767293415944 33.79459524467314 O 0.0 **** -0.82
6863 H 26.828067061576856 41.29674806841687 34.125640332396046 H 0.0 **** 0.41
6864 H 25.89172287032335 40.27400172890403 33.36192761638637 H 0.0 **** 0.41
6865 O 29.660533802945967 37.93000819792926 24.352032566973076 O 0.0 **** -0.82
6866 H 30.203234774553028 37.06807637720926 24.52614961152739 H 0.0 **** 0.41
6867 H 30.210295919390735 38.14092608295497 23.49064865904134 H 0.0 **** 0.41
6868 O 7.003831385023348 42.127937824599016 2.233420051793715 O 0.0 **** -0.82
6869 H 7.091200370112189 42.74271134781388 1.4523903291542553 H 0.0 **** 0.41
6870 H 6.554386328950851 42.716380757950326 2.93874130103616 H 0.0 **** 0.41
6871 O 12.307080820607327 4.330534495442435 21.367985535500026 O 0.0 **** -0.82
6872 H 12.184880920857669 3.723626450432996 20.613385714074198 H 0.0 **** 0.41
6873 H 13.295039730256876 4.1934783814978704 21.68772911930786 H 0.0 **** 0.41
6874 O 10.316694441731052 6.204166943379775 47.93494159135895 O 0.0 **** -0.82
6875 H 9.912819933514697 6.54992319759873 48.81993485012561 H 0.0 **** 0.41
6876 H 9.702212283904238 6.603801204763222 47.17960478490332 H 0.0 **** 0.41
6877 O 12.636304137458442 10.646205959159888 14.402006427151335 O 0.0 **** -0.82
6878 H 11.679829204612433 10.421184789780542 14.340998570971905 H 0.0 **** 0.41
6879 H 12.741694730464793 11.160763634921176 13.542070845614262 H 0.0 **** 0.41
6880 O 34.934800212230954 34.04218025661105 6.516410580553583 O 0.0 **** -0.82
6881 H 34.19735150122852 33.74220077594504 7.15985866317255 H 0.0 **** 0.41
6882 H 35.37519256401517 34.73207723603553 7.154561550943718 H 0.0 **** 0.41
6883 O 2.1551229753849555 40.646112526048945 28.90723133510174 O 0.0 **** -0.82
6884 H 1.4612621191551796 40.10602701418384 28.46753344015673 H 0.0 **** 0.41
6885 H 1.8325720955581346 40.70626521594046 29.83137947939123 H 0.0 **** 0.41
6886 O 45.91059959111502 36.354878216120476 24.34306842880927 O 0.0 **** -0.82
6887 H 45.40965158496912 35.56253453501231 24.03904148240154 H 0.0 **** 0.41
6888 H 45.40147387816047 36.504837382965334 25.176563106180847 H 0.0 **** 0.41
6889 O 35.555397740407415 26.527230200616028 9.176164102660813 O 0.0 **** -0.82
6890 H 36.48144031491885 26.828836195326293 9.135809759049891 H 0.0 **** 0.41
6891 H 35.25070987733696 26.17680608612032 8.206373497085906 H 0.0 **** 0.41
6892 O 48.73730711362045 21.511319770530793 49.3613374343063 O 0.0 **** -0.82
6893 H 48.98001658368208 21.995862762506142 48.4955077542143 H 0.0 **** 0.41
6894 H 48.45066674536398 20.53846706643392 49.148339767053905 H 0.0 **** 0.41
6895 O 30.97323811925905 42.438492263586696 13.910216843412309 O 0.0 **** -0.82
6896 H 30.106017995794947 41.93234594813016 13.758599101766682 H 0.0 **** 0.41
6897 H 31.265244519585956 42.79015501080292 12.98584452560867 H 0.0 **** 0.41
6898 O 10.575011235543379 26.2724975565478 8.13152895281501 O 0.0 **** -0.82
6899 H 9.771356243077797 25.98681275409735 7.532683079249033 H 0.0 **** 0.41
6900 H 10.412131378385851 27.228647490199048 8.50604867363652 H 0.0 **** 0.41
6901 O 2.9250649918739655 3.275292412878658 37.79282645860868 O 0.0 **** -0.82
6902 H 3.1177647503131793 3.6845552925005824 38.68345327279022 H 0.0 **** 0.41
6903 H 3.228386074694718 2.274139760584112 37.88489278886228 H 0.0 **** 0.41
6904 O 43.50180632923484 7.643740613595733 9.413946805961288 O 0.0 **** -0.82
6905 H 44.3787107609165 7.184158986473282 9.503363860528086 H 0.0 **** 0.41
6906 H 43.243218316331266 7.741538366621563 8.43137650105896 H 0.0 **** 0.41
6907 O 23.542975970896993 9.70754800988226 15.53464438695704 O 0.0 **** -0.82
6908 H 24.235791726327797 9.413589260825816 14.840756945312814 H 0.0 **** 0.41
6909 H 23.441014141435613 8.947629180337785 16.20691771319612 H 0.0 **** 0.41
6910 O 41.996203655376966 35.68507847924005 30.83358630925478 O 0.0 **** -0.82
6911 H 41.24991133639513 35.5774870628554 30.18374712611695 H 0.0 **** 0.41
6912 H 41.9796662052986 34.975221611589006 31.522627786955187 H 0.0 **** 0.41
6913 O 44.01564777514581 18.590173044865637 12.682988208342039 O 0.0 **** -0.82
6914 H 44.95758485312141 18.612771086001842 12.321340586163288 H 0.0 **** 0.41
6915 H 44.03288315581489 19.299324082579915 13.432178876784363 H 0.0 **** 0.41
6916 O 11.232270297932246 47.05749876992865 4.5352243014329385 O 0.0 **** -0.82
6917 H 11.109411545919237 46.92700926284484 3.4991352477584625 H 0.0 **** 0.41
6918 H 11.654596301987105 46.16853829572546 4.951660670146836 H 0.0 **** 0.41
6919 O 42.877083474320834 2.9921995569803066 1.5817541755310323 O 0.0 **** -0.82
6920 H 42.572356599362024 2.02422490771702 1.3256633112908505 H 0.0 **** 0.41
6921 H 42.71962800461788 3.6191873292754475 0.8204080881853872 H 0.0 **** 0.41
6922 O 27.886022381232536 5.071344589328796 46.24308267318027 O 0.0 **** -0.82
6923 H 27.696615044773015 4.135068511601705 46.47865471704547 H 0.0 **** 0.41
6924 H 28.916222030664716 5.087089675401741 46.2015966274835 H 0.0 **** 0.41
6925 O 29.39793337209082 37.362277170541944 9.238865730077782 O 0.0 **** -0.82
6926 H 29.10853862589126 37.39528374742534 8.235409397466677 H 0.0 **** 0.41
6927 H 29.97293838661918 38.138287415835826 9.537906813009824 H 0.0 **** 0.41
6928 O 10.843311220453991 33.3474228772626 3.9363248757165863 O 0.0 **** -0.82
6929 H 11.268396341530382 34.24967741672369 3.760562429569937 H 0.0 **** 0.41
6930 H 10.56565578975337 33.36703694023568 4.911259681834913 H 0.0 **** 0.41
6931 O 4.579302623961576 20.366123649415456 29.527784567776255 O 0.0 **** -0.82
6932 H 5.087657046208661 20.322363256648345 28.655580576803867 H 0.0 **** 0.41
6933 H 5.181572634661108 21.086098765832844 29.96786513269078 H 0.0 **** 0.41
6934 O 23.323570667240617 20.10727113177497 30.26424794676331 O 0.0 **** -0.82
6935 H 23.24365844760912 20.935360653874113 30.849308377730203 H 0.0 **** 0.41
6936 H 23.46518164842027 19.404843457496362 30.956098189098412 H 0.0 **** 0.41
6937 O 5.8634837474098935 24.38275614995137 20.15529029744676 O 0.0 **** -0.82
6938 H 5.3080689744798715 23.878617767115802 19.454115599301392 H 0.0 **** 0.41
6939 H 6.722098434559384 24.826265085325137 19.775481117269692 H 0.0 **** 0.41
6940 O 33.846049126508476 39.24115997134416 47.65272720640136 O 0.0 **** -0.82
6941 H 32.84307835615038 38.94773800447474 47.696941665887536 H 0.0 **** 0.41
6942 H 34.453607768415466 38.42699968412467 47.599609542301174 H 0.0 **** 0.41
6943 O 1.8835816779214203 38.90766207578503 44.61315184364674 O 0.0 **** -0.82
6944 H 1.7963132293603439 39.33926248620301 43.71384294024056 H 0.0 **** 0.41
6945 H 1.2225562423610907 38.1975405400063 44.76561894187532 H 0.0 **** 0.41
6946 O 21.953095413819593 7.271842948784825 36.364615508460055 O 0.0 **** -0.82
6947 H 22.092538410372956 7.80942204810389 35.50444305083273 H 0.0 **** 0.41
6948 H 21.747634180857414 6.353937010515316 35.942574454994734 H 0.0 **** 0.41
6949 O 11.582270665420005 27.615556524561526 45.37974985632561 O 0.0 **** -0.82
6950 H 10.646772002570216 27.284947731203182 45.15159772716355 H 0.0 **** 0.41
6951 H 11.631127882853619 28.586003485262783 45.07738166887189 H 0.0 **** 0.41
6952 O 28.327349026175426 12.282833555052306 49.834181455976086 O 0.0 **** -0.82
6953 H 29.160365922982294 12.880410111838131 50.00713670845976 H 0.0 **** 0.41
6954 H 28.4324687620785 11.330151997911898 50.0995001082892 H 0.0 **** 0.41
6955 O 12.262721016254275 2.4371935557515383 41.025384944525065 O 0.0 **** -0.82
6956 H 11.481912484547934 2.546314912250831 40.3763017789512 H 0.0 **** 0.41
6957 H 11.887468192263 2.816430927118249 41.90927947582608 H 0.0 **** 0.41
6958 O 41.93664662741092 31.608611675639807 8.292609755063074 O 0.0 **** -0.82
6959 H 41.99860566210315 30.935421743297017 9.061988443131208 H 0.0 **** 0.41
6960 H 41.54573748183573 31.040335318814385 7.567505286415569 H 0.0 **** 0.41
6961 O 44.63956227846623 24.47235547389821 24.98191097000777 O 0.0 **** -0.82
6962 H 44.69065703531669 25.21128554219377 25.74611127905106 H 0.0 **** 0.41
6963 H 45.1109704188401 24.994906919830477 24.27356433171226 H 0.0 **** 0.41
6964 O 44.90992757406897 32.395601497316385 36.305697948481985 O 0.0 **** -0.82
6965 H 45.829313861847474 32.681461043306314 36.69081712144671 H 0.0 **** 0.41
6966 H 45.088746268255 32.685659606222075 35.36218350478753 H 0.0 **** 0.41
6967 O 7.020432706996402 11.357254295393954 38.68879825099627 O 0.0 **** -0.82
6968 H 7.389271272527786 10.836673575905085 39.456611103033985 H 0.0 **** 0.41
6969 H 7.4703184584755675 12.302103986543425 38.60338592589302 H 0.0 **** 0.41
6970 O 17.34474427130053 25.60938219469204 5.967859591848885 O 0.0 **** -0.82
6971 H 16.741564578735616 26.455018929712917 5.769795569552542 H 0.0 **** 0.41
6972 H 17.52317611050352 25.58855027078649 6.9387153141938995 H 0.0 **** 0.41
6973 O 16.785723435332272 3.981942959767624 16.522491504552423 O 0.0 **** -0.82
6974 H 17.103916030601297 3.594664982581624 17.378576889582416 H 0.0 **** 0.41
6975 H 17.45163493241796 4.665926993492437 16.134734160232913 H 0.0 **** 0.41
6976 O 35.5282688679211 8.678097329698375 18.339243938399818 O 0.0 **** -0.82
6977 H 34.632259287239656 8.240961376190118 18.120659846621347 H 0.0 **** 0.41
6978 H 36.062832776733664 7.8341137037552375 18.575690115469676 H 0.0 **** 0.41
6979 O 31.972073479258906 28.25890772233466 49.84551216302536 O 0.0 **** -0.82
6980 H 32.80717723487976 28.297115914234006 49.25157319729847 H 0.0 **** 0.41
6981 H 31.371247996065623 27.80458047862927 49.18738454324726 H 0.0 **** 0.41
6982 O 40.24080986448008 49.07809144003582 49.13864947115234 O 0.0 **** -0.82
6983 H 40.9266202577798 48.81082983599459 48.50225405518073 H 0.0 **** 0.41
6984 H 39.42759470364173 49.41585383937998 48.60042648597946 H 0.0 **** 0.41
6985 O 18.430307522778513 44.117940819297715 36.634512696439536 O 0.0 **** -0.82
6986 H 17.85621623252321 44.49686156058321 35.938316884483754 H 0.0 **** 0.41
6987 H 19.177029855123266 44.80039205295607 36.87988790637366 H 0.0 **** 0.41
6988 O 29.457017806274735 28.984857176441732 34.9240441430488 O 0.0 **** -0.82
6989 H 29.163777025045036 29.202949468484285 33.99259815674671 H 0.0 **** 0.41
6990 H 29.091230267838483 29.802516656511774 35.436091557143655 H 0.0 **** 0.41
6991 O 36.308723171983615 32.12468645632681 12.682187666368367 O 0.0 **** -0.82
6992 H 36.74341862156073 33.03754571073266 12.580508139028769 H 0.0 **** 0.41
6993 H 37.01857470146776 31.56881447958601 12.295309865967257 H 0.0 **** 0.41
6994 O 39.629908108162134 18.23692753723134 18.63660317242522 O 0.0 **** -0.82
6995 H 40.48162556236158 18.686998570523812 19.071501929100034 H 0.0 **** 0.41
6996 H 38.96153409343221 18.981880352900802 18.44433465299116 H 0.0 **** 0.41
6997 O 23.83214089115386 33.95903057778705 36.642231246971974 O 0.0 **** -0.82
6998 H 23.346148196361373 34.84508234559961 36.766005278718005 H 0.0 **** 0.41
6999 H 23.215404470746865 33.489688512506724 35.98887275779775 H 0.0 **** 0.41
7000 O 8.412531324308446 21.563008597485073 15.152924645428577 O 0.0 **** -0.82
7001 H 8.586890902544821 21.626080722988803 14.13851246544117 H 0.0 **** 0.41
7002 H 8.581194526847886 22.451012778582033 15.693175769910265 H 0.0 **** 0.41
7003 O 4.332309244613903 47.72017916735217 6.46540786363787 O 0.0 **** -0.82
7004 H 3.913897506760236 48.031572440427894 7.35515383607881 H 0.0 **** 0.41
7005 H 5.301048148410672 47.79785543601038 6.6012705820207636 H 0.0 **** 0.41
7006 O 22.61660598530765 2.9824085748433546 25.772819666428774 O 0.0 **** -0.82
7007 H 22.530284995802155 3.6317918667305307 25.027353937081713 H 0.0 **** 0.41
7008 H 22.80944530393504 3.6356106861556725 26.55587030638408 H 0.0 **** 0.41
7009 O 46.88988321566362 13.367321659059932 8.382610377724973 O 0.0 **** -0.82
7010 H 46.79372567162872 12.634875499388428 7.733352188345947 H 0.0 **** 0.41
7011 H 47.6042163562282 14.042392488975779 8.016167807786346 H 0.0 **** 0.41
7012 O 29.495125684330482 38.72877669667476 15.349019682450027 O 0.0 **** -0.82
7013 H 28.98753670184316 39.558858851813184 15.092775650192095 H 0.0 **** 0.41
7014 H 29.716823010657127 38.77473805526953 16.329996367842043 H 0.0 **** 0.41
7015 O 21.41149517925994 23.87351483704631 10.26640682543286 O 0.0 **** -0.82
7016 H 20.60838828888835 23.310250716649588 10.002547855835537 H 0.0 **** 0.41
7017 H 21.04510624531636 24.470281284323384 11.038243523025344 H 0.0 **** 0.41
7018 O 32.71882400683365 20.782318074808344 22.123407994874704 O 0.0 **** -0.82
7019 H 32.107756436120006 20.01330554260298 22.340790873135216 H 0.0 **** 0.41
7020 H 33.66882810486348 20.64280233068557 22.51774551595408 H 0.0 **** 0.41
7021 O 38.9323759099762 10.370829237521988 48.88070307848558 O 0.0 **** -0.82
7022 H 39.672853184966684 10.088169116156536 49.4726026179726 H 0.0 **** 0.41
7023 H 38.30474204788661 9.580519043314382 48.7390342175384 H 0.0 **** 0.41
7024 O 9.026771989434572 28.607571726644753 20.260937268207815 O 0.0 **** -0.82
7025 H 8.267021516170253 28.0768659268404 20.71415838309498 H 0.0 **** 0.41
7026 H 9.334446518025999 28.032972501692424 19.51422423896693 H 0.0 **** 0.41
7027 O 6.3148824085624184 11.55930258292704 25.384756408590572 O 0.0 **** -0.82
7028 H 6.514586282013269 10.7597509146192 24.77330936162712 H 0.0 **** 0.41
7029 H 7.0187578273118305 11.688421901173193 26.0852409963152 H 0.0 **** 0.41
7030 O 15.031809966229659 43.48374717034489 4.955257180652687 O 0.0 **** -0.82
7031 H 14.699404187713412 42.508356468075334 4.84203856301955 H 0.0 **** 0.41
7032 H 15.857829803056276 43.54897582669609 5.5505613362243125 H 0.0 **** 0.41
7033 O 36.99295755213276 21.750753455786995 26.421407251694493 O 0.0 **** -0.82
7034 H 36.09306568004319 21.402419517520947 26.88915889952101 H 0.0 **** 0.41
7035 H 37.387699220834165 22.482529893846642 27.000519691894414 H 0.0 **** 0.41
7036 O 46.18974444415073 44.26189808436171 46.0671592260799 O 0.0 **** -0.82
7037 H 46.74327519836444 43.52656104674761 46.400757017152614 H 0.0 **** 0.41
7038 H 45.39800586220646 44.30280878666268 46.704827434363146 H 0.0 **** 0.41
7039 O 30.496951995639833 17.575362574414 0.7292063416329152 O 0.0 **** -0.82
7040 H 29.467998326810747 17.478019350992952 0.7958375895266171 H 0.0 **** 0.41
7041 H 30.73696589990174 18.061313794372197 -0.14114007711386023 H 0.0 **** 0.41
7042 O 3.352740674050679 13.734970135324339 47.47441399226244 O 0.0 **** -0.82
7043 H 4.0567590401375 14.011993008149787 48.148471388796246 H 0.0 **** 0.41
7044 H 3.852656285335385 13.721840955776528 46.58520988696313 H 0.0 **** 0.41
7045 O 6.4802244452085045 45.51636188772855 12.088030883978483 O 0.0 **** -0.82
7046 H 7.220616670757643 45.12616674885043 12.607580546813907 H 0.0 **** 0.41
7047 H 6.6795558761551055 45.66947872382972 11.077967470847994 H 0.0 **** 0.41
7048 O 13.686389817895396 34.301612526296324 27.48114074590088 O 0.0 **** -0.82
7049 H 13.178171105526715 35.126789350799044 27.525737891180643 H 0.0 **** 0.41
7050 H 13.069469885800444 33.6770249514174 26.96390226152619 H 0.0 **** 0.41
7051 O 36.98390370995682 29.427336814392813 8.521356466021793 O 0.0 **** -0.82
7052 H 37.46949835794085 28.895216667814946 7.831674397738981 H 0.0 **** 0.41
7053 H 36.13185724633675 29.759515767072546 7.988189539900768 H 0.0 **** 0.41
7054 O 22.485670131600653 36.070275552120954 24.413763892125214 O 0.0 **** -0.82
7055 H 21.903472985587324 36.00392990619381 23.602420861994293 H 0.0 **** 0.41
7056 H 22.477743043053742 35.10916048838754 24.697216154603183 H 0.0 **** 0.41
7057 O 47.97656904420123 47.806358632908136 19.099144927464526 O 0.0 **** -0.82
7058 H 47.15316866122821 47.726690795672816 18.49350816512245 H 0.0 **** 0.41
7059 H 48.640548272175835 48.325381722222396 18.466927974946586 H 0.0 **** 0.41
7060 O 3.891962943676461 11.185353346212096 17.41241321137193 O 0.0 **** -0.82
7061 H 3.763300242384581 12.201394094255129 17.26455287340377 H 0.0 **** 0.41
7062 H 3.1050570441577747 10.866642674705325 17.966996528708584 H 0.0 **** 0.41
7063 O 42.34167388422907 6.194487088730767 24.167489018716147 O 0.0 **** -0.82
7064 H 42.972011351586694 6.947610498889922 24.11043173630193 H 0.0 **** 0.41
7065 H 42.563849779391965 5.570884050359254 24.861361254837984 H 0.0 **** 0.41
7066 O 9.96142477713593 10.57181505486008 17.249856336289174 O 0.0 **** -0.82
7067 H 9.401780833597424 10.377787470502042 18.093554712477342 H 0.0 **** 0.41
7068 H 9.4966815206218 10.110246478415704 16.48228278358304 H 0.0 **** 0.41
7069 O 49.377381999614904 39.34079928061261 14.949392911561944 O 0.0 **** -0.82
7070 H 49.619809717467724 38.353789005380186 15.171072413666622 H 0.0 **** 0.41
7071 H 50.24090218325302 39.84635593716185 14.816930129474038 H 0.0 **** 0.41
7072 O 5.276017804665178 10.810672436581612 45.03400659164958 O 0.0 **** -0.82
7073 H 5.207680376347547 11.406634094948913 45.825516390553396 H 0.0 **** 0.41
7074 H 5.424001858816484 11.359035824396614 44.20059208780929 H 0.0 **** 0.41
7075 O 19.609024911230016 36.776386731182654 35.20527689632185 O 0.0 **** -0.82
7076 H 20.09474403704575 36.22934214657602 34.47635152745358 H 0.0 **** 0.41
7077 H 18.61983847971014 36.5782635752457 35.05179418280812 H 0.0 **** 0.41
7078 O 28.931863557579874 23.278448902274114 17.666997575200654 O 0.0 **** -0.82
7079 H 28.926093637139914 24.144500305501502 17.079949022022515 H 0.0 **** 0.41
7080 H 29.344348656120857 22.513860942204786 17.087190478178833 H 0.0 **** 0.41
7081 O 7.164543386296942 40.49086014261162 33.962299880971834 O 0.0 **** -0.82
7082 H 7.554897440999498 39.93862814731773 34.71943968102322 H 0.0 **** 0.41
7083 H 7.638903291361479 41.364868892529856 34.04352751443512 H 0.0 **** 0.41
7084 O 29.58407380123184 26.044639399850734 23.80097472587867 O 0.0 **** -0.82
7085 H 29.81429469487408 26.460284258893793 22.939058038137052 H 0.0 **** 0.41
7086 H 29.704980044921683 25.051870746692906 23.64789071472235 H 0.0 **** 0.41
7087 O 8.605986318129577 22.10484201727404 4.474177358819897 O 0.0 **** -0.82
7088 H 7.673389329270229 21.676745236750385 4.596165959616301 H 0.0 **** 0.41
7089 H 9.105126124007523 21.393186338945128 3.833105686743991 H 0.0 **** 0.41
7090 O 32.48235558753558 36.57532957202943 38.66178556187611 O 0.0 **** -0.82
7091 H 32.24481253873279 36.615630086777934 37.66913179361735 H 0.0 **** 0.41
7092 H 31.638403888335574 36.12339835998246 39.038686203674985 H 0.0 **** 0.41
7093 O 15.167848864054019 2.99229802676043 3.684640448974458 O 0.0 **** -0.82
7094 H 14.563740227902057 2.2610273675519323 3.3198733635883624 H 0.0 **** 0.41
7095 H 15.18008478697237 2.8977402996219794 4.726375339389613 H 0.0 **** 0.41
7096 O 26.363989394781726 41.8997969125385 4.50076845850154 O 0.0 **** -0.82
7097 H 26.42238771028968 41.37861328253788 3.639379591745346 H 0.0 **** 0.41
7098 H 27.077684777833134 41.42815708535024 5.0898685869821065 H 0.0 **** 0.41
7099 O 30.274177131080062 47.41582651636285 16.1094212544617 O 0.0 **** -0.82
7100 H 29.69183001473903 46.950694777397004 15.41457567209471 H 0.0 **** 0.41
7101 H 31.074666009297854 47.69132135596345 15.51224211757945 H 0.0 **** 0.41
7102 O 34.3467860467392 5.157729999349122 12.321056575042258 O 0.0 **** -0.82
7103 H 34.30997650221071 4.631163181693012 11.459932302159396 H 0.0 **** 0.41
7104 H 34.81792020658103 4.512900839867143 12.877050951775123 H 0.0 **** 0.41
7105 O 46.65720583815164 0.5117976024468945 20.01586676088886 O 0.0 **** -0.82
7106 H 47.57580322403595 0.7804281114240269 19.780657863105166 H 0.0 **** 0.41
7107 H 46.39035319075006 0.9155802617171555 20.901447183786424 H 0.0 **** 0.41
7108 O 34.96785707533193 42.99908508434524 48.083006099124546 O 0.0 **** -0.82
7109 H 34.576267044247444 42.4191926353073 47.348373188515396 H 0.0 **** 0.41
7110 H 35.572391800675746 43.69601031550869 47.63624660252751 H 0.0 **** 0.41
7111 O 37.170631881131584 9.387785852142876 25.708727081241562 O 0.0 **** -0.82
7112 H 36.70218840289857 8.526074065333383 25.790104746361706 H 0.0 **** 0.41
7113 H 37.71849512800716 9.608896553146216 26.481891687909098 H 0.0 **** 0.41
7114 O 13.663953115089937 17.244477435797293 13.259904562191451 O 0.0 **** -0.82
7115 H 14.420146637170363 16.59908507624526 13.01123996693746 H 0.0 **** 0.41
7116 H 13.731508396861363 17.26106507607193 14.273789294616051 H 0.0 **** 0.41
7117 O 16.65469064297298 20.512535919741197 14.800174539710554 O 0.0 **** -0.82
7118 H 16.507586871212624 19.49144407422466 14.950579160210395 H 0.0 **** 0.41
7119 H 17.36519876619394 20.752941151334937 15.45208794288341 H 0.0 **** 0.41
7120 O 14.261883259930256 16.814811677779314 39.80065555155352 O 0.0 **** -0.82
7121 H 14.94521654508193 16.396287768979573 40.43476521770644 H 0.0 **** 0.41
7122 H 13.358254270269097 16.588478023010836 40.27529174673821 H 0.0 **** 0.41
7123 O 40.43543108608631 39.02001290476397 45.39999134149955 O 0.0 **** -0.82
7124 H 40.783111102605176 39.812164356713495 46.0031827435008 H 0.0 **** 0.41
7125 H 39.87261244329942 39.53133210934358 44.75902304167963 H 0.0 **** 0.41
7126 O 41.427604436163335 15.518952658650914 49.78900271453813 O 0.0 **** -0.82
7127 H 40.97881394803943 15.292845262091017 50.705398653555584 H 0.0 **** 0.41
7128 H 40.87750081831443 14.908513094919645 49.11407290068735 H 0.0 **** 0.41
7129 O 12.724065166191707 20.20275947250583 39.43435840955281 O 0.0 **** -0.82
7130 H 12.854877818327878 20.760711901005674 38.593656866159726 H 0.0 **** 0.41
7131 H 13.050812550269775 19.309307935118593 39.07969139149021 H 0.0 **** 0.41
7132 O 28.240016956955465 42.41306089538602 12.356756007678626 O 0.0 **** -0.82
7133 H 27.240452923212988 42.69922889955119 12.338580124672704 H 0.0 **** 0.41
7134 H 28.44510837202996 42.39598600015502 11.368787345105078 H 0.0 **** 0.41
7135 O 13.406863048467173 32.23972400968857 29.503781291687943 O 0.0 **** -0.82
7136 H 14.1978224402543 31.685281871552117 29.342215835946085 H 0.0 **** 0.41
7137 H 13.53633556903624 33.04861764980666 28.961858710657246 H 0.0 **** 0.41
7138 O 21.1695830782659 7.525122488124486 3.337143820387041 O 0.0 **** -0.82
7139 H 21.560741567872704 6.636348983530317 3.0304441169950707 H 0.0 **** 0.41
7140 H 20.19508494395616 7.297127444529681 3.468051384070826 H 0.0 **** 0.41
7141 O 27.8441762054226 40.790200602409435 46.38359987699814 O 0.0 **** -0.82
7142 H 28.445937059106086 40.6095918970523 47.238397641042276 H 0.0 **** 0.41
7143 H 27.21898143493604 41.45009844846914 46.84145254582393 H 0.0 **** 0.41
7144 O 31.788747708598674 5.928608940407303 7.762323999104311 O 0.0 **** -0.82
7145 H 31.35934364807726 6.6261993953551475 8.364694308412465 H 0.0 **** 0.41
7146 H 31.654864658336265 6.373200640970394 6.867961267445757 H 0.0 **** 0.41
7147 O 3.251789703561782 36.843269352062094 36.85833789872182 O 0.0 **** -0.82
7148 H 2.9660145389998678 35.98509465074012 36.41043694448691 H 0.0 **** 0.41
7149 H 3.864028795607671 37.073320966447255 36.09394006265469 H 0.0 **** 0.41
7150 O 28.23166094752236 33.140616570292444 32.40363896500179 O 0.0 **** -0.82
7151 H 29.049982325220157 32.60477013326158 32.18216652541109 H 0.0 **** 0.41
7152 H 28.419957620134724 33.71076632051635 33.1577549304422 H 0.0 **** 0.41
7153 O 45.95404905978765 40.7049745310215 25.708364534401866 O 0.0 **** -0.82
7154 H 46.02579379669746 41.689851824703524 25.967696188029095 H 0.0 **** 0.41
7155 H 45.89460954478835 40.699220987013604 24.678921153222007 H 0.0 **** 0.41
7156 O 29.680928829996443 47.223217243912956 20.198489703028862 O 0.0 **** -0.82
7157 H 30.07363501849028 47.78746658858903 19.429881088843878 H 0.0 **** 0.41
7158 H 29.23870286001289 46.463669098201855 19.664910776962408 H 0.0 **** 0.41
7159 O 32.416636150129534 35.8880446961751 22.388993777356063 O 0.0 **** -0.82
7160 H 33.29611109111829 36.443897244684976 22.201223006970515 H 0.0 **** 0.41
7161 H 31.79113985397447 36.08828186885817 21.62568788740639 H 0.0 **** 0.41
7162 O 49.18826602838498 9.368593145138117 48.07047294921036 O 0.0 **** -0.82
7163 H 48.81692503344031 9.62203684766526 49.02508010612161 H 0.0 **** 0.41
7164 H 49.57403591240812 10.218455164806272 47.590906937615614 H 0.0 **** 0.41
7165 O 10.794144452348974 40.8679373536034 30.63266987396527 O 0.0 **** -0.82
7166 H 10.732747316618573 41.82315727753395 30.359511062467647 H 0.0 **** 0.41
7167 H 10.273679682322655 40.44345240256318 29.887556920924823 H 0.0 **** 0.41
7168 O 43.269998114368526 0.5479738180057723 12.870840343880502 O 0.0 **** -0.82
7169 H 42.96059302403389 -0.42378139089996125 13.063055628158885 H 0.0 **** 0.41
7170 H 42.591142350525864 0.9467451144519146 13.470658452155035 H 0.0 **** 0.41
7171 O 23.730370555723994 7.080289832846475 42.25723882532345 O 0.0 **** -0.82
7172 H 24.4865775004627 6.3527296378427565 42.50564182441074 H 0.0 **** 0.41
7173 H 22.905794660532834 7.028236104431997 42.93810149183402 H 0.0 **** 0.41
7174 O 2.804766854895466 24.90336739929658 31.460826918838528 O 0.0 **** -0.82
7175 H 2.770363174226075 23.886794085296074 31.702491417853892 H 0.0 **** 0.41
7176 H 2.97030263256597 25.461322147288087 32.22186972934448 H 0.0 **** 0.41
7177 O 15.219587001429748 46.82280936824234 40.15721730389104 O 0.0 **** -0.82
7178 H 15.333431838855123 45.84181248633357 40.22063352543912 H 0.0 **** 0.41
7179 H 16.130674321540464 47.21468564307385 40.130406380870426 H 0.0 **** 0.41
7180 O 17.683423777396413 47.73087087671026 41.063321054603385 O 0.0 **** -0.82
7181 H 17.764668073272787 47.48546975084357 42.01848600352763 H 0.0 **** 0.41
7182 H 17.15019116545443 48.54136222472618 40.91044556256892 H 0.0 **** 0.41
7183 O 21.857016878580993 6.994477814395288 11.035851163371799 O 0.0 **** -0.82
7184 H 22.560573768973704 7.650589633922125 10.838233879012495 H 0.0 **** 0.41
7185 H 21.098137276525144 7.595850118531544 11.21142136374635 H 0.0 **** 0.41
7186 O 10.803961206015643 38.55458044725967 11.702183581982187 O 0.0 **** -0.82
7187 H 10.324676736051458 38.14794454839329 10.843570344197232 H 0.0 **** 0.41
7188 H 10.969455833869986 39.54353465166434 11.557233700627934 H 0.0 **** 0.41
7189 O 15.910882112893637 45.46829042144466 19.0325716094413 O 0.0 **** -0.82
7190 H 16.19780971104717 44.60056687343255 18.518521707344977 H 0.0 **** 0.41
7191 H 15.090587293286246 45.18745148830801 19.509667833038744 H 0.0 **** 0.41
7192 O 23.452916913722436 34.71682008528761 2.6380828116803308 O 0.0 **** -0.82
7193 H 22.718039754227544 35.47495365614106 2.644616883638242 H 0.0 **** 0.41
7194 H 24.21754330941194 35.07137231382944 3.199036732908695 H 0.0 **** 0.41
7195 O 7.257337925524616 9.716371267189647 0.8695460008216784 O 0.0 **** -0.82
7196 H 6.777082905515611 10.124380819889996 0.08221845875849709 H 0.0 **** 0.41
7197 H 6.428216326936603 9.399864779816545 1.4347419881187378 H 0.0 **** 0.41
7198 O 2.581733501231575 6.016945955033105 21.99955518843182 O 0.0 **** -0.82
7199 H 3.412580868367961 5.681092163820621 21.485059662682072 H 0.0 **** 0.41
7200 H 1.8447518013082131 5.961446750186355 21.29699228767663 H 0.0 **** 0.41
7201 O 11.545700342332992 5.281469745585213 12.672996756831145 O 0.0 **** -0.82
7202 H 12.045711241007297 5.204423405252754 11.799881879432123 H 0.0 **** 0.41
7203 H 11.788461711365194 4.539005585016525 13.283347881729547 H 0.0 **** 0.41
7204 O 45.573064327222966 48.62782457853418 38.69411578721525 O 0.0 **** -0.82
7205 H 44.76882652684463 48.19014798452383 38.29540396838115 H 0.0 **** 0.41
7206 H 45.516828879603125 49.51542317471736 38.211997633671395 H 0.0 **** 0.41
7207 O 30.594342779991972 23.406707446413034 23.79080470052425 O 0.0 **** -0.82
7208 H 31.48484396133467 23.218170084511087 24.19607992289782 H 0.0 **** 0.41
7209 H 30.337649801936326 22.771306708261605 23.070438780645063 H 0.0 **** 0.41
7210 O 36.42886917579692 30.597643539512895 15.756382097509942 O 0.0 **** -0.82
7211 H 35.994917498542456 30.08814302872828 16.456173800421098 H 0.0 **** 0.41
7212 H 35.710930653507546 30.960534010221764 15.142331417365853 H 0.0 **** 0.41
7213 O 26.096502357018807 11.156016754380943 24.09087876079341 O 0.0 **** -0.82
7214 H 25.713835009126946 12.027529640816994 23.88834717377621 H 0.0 **** 0.41
7215 H 25.275064558887074 10.590536497278691 23.885752750745073 H 0.0 **** 0.41
7216 O 38.616611970816656 31.38817774352045 33.761753772889875 O 0.0 **** -0.82
7217 H 39.22292411037742 31.96446914849573 34.34219859744283 H 0.0 **** 0.41
7218 H 37.6762173196537 31.793046316793546 33.8425116704398 H 0.0 **** 0.41
7219 O 13.178511439249398 35.37600642811076 46.746472872061595 O 0.0 **** -0.82
7220 H 13.759790780631413 34.92204324907564 47.462449427143795 H 0.0 **** 0.41
7221 H 13.082057613959428 36.375613895668884 47.032589840443315 H 0.0 **** 0.41
7222 O 44.458502603801506 13.66591526434784 14.209232858512847 O 0.0 **** -0.82
7223 H 44.20547055722253 14.645828300660787 14.410054879248447 H 0.0 **** 0.41
7224 H 44.851178087445504 13.558644952701918 13.344478730376396 H 0.0 **** 0.41
7225 O 36.62886307101367 10.785258811123029 40.642934776863086 O 0.0 **** -0.82
7226 H 36.7930645272185 11.790336897624806 40.770340888488164 H 0.0 **** 0.41
7227 H 36.88740765703005 10.663970878466072 39.69997826236586 H 0.0 **** 0.41
7228 O 37.66734585373437 9.381990560376208 16.385177202499193 O 0.0 **** -0.82
7229 H 37.26372042875614 9.073002528630795 17.245229824294427 H 0.0 **** 0.41
7230 H 36.9242735896525 9.699645706841306 15.807750870439591 H 0.0 **** 0.41
7231 O 1.5139185392817534 38.764185912126955 8.642774830665886 O 0.0 **** -0.82
7232 H 2.286555998996952 39.34405014344703 8.353256741158818 H 0.0 **** 0.41
7233 H 0.9687340057955958 39.38304075621917 9.329522934560279 H 0.0 **** 0.41
7234 O 47.70305902836602 42.58684844493785 11.582860846688357 O 0.0 **** -0.82
7235 H 48.51575305720613 42.57423982346353 12.24776387287538 H 0.0 **** 0.41
7236 H 47.2349465228065 41.80495597442623 11.964143723368867 H 0.0 **** 0.41
7237 O 26.744405245959594 43.36155616910205 21.979943000333535 O 0.0 **** -0.82
7238 H 25.978731745298813 43.27203059220795 22.67183085088592 H 0.0 **** 0.41
7239 H 26.405494623417805 44.121845449450156 21.448255726244128 H 0.0 **** 0.41
7240 O 5.093591503669156 43.27598064229199 19.603549102120933 O 0.0 **** -0.82
7241 H 4.23419503512958 42.672095256981436 19.69311401114822 H 0.0 **** 0.41
7242 H 4.673579287258326 44.15628500463272 19.38555642155967 H 0.0 **** 0.41
7243 O 16.572027339767416 18.288154107648985 3.4650448635882825 O 0.0 **** -0.82
7244 H 17.3508707674728 18.924390783982812 3.1556417833772628 H 0.0 **** 0.41
7245 H 16.501068788090947 18.312089559143644 4.478491566499471 H 0.0 **** 0.41
7246 O 38.84854750010087 47.74746765002215 9.444070858789917 O 0.0 **** -0.82
7247 H 39.76275246268533 47.30067989867216 9.436827122557228 H 0.0 **** 0.41
7248 H 38.49823913991271 47.61102116547948 8.477711395031518 H 0.0 **** 0.41
7249 O 25.32715584280253 23.631380918610844 20.307164511170896 O 0.0 **** -0.82
7250 H 25.79361015355154 24.491328695970864 20.451345834741176 H 0.0 **** 0.41
7251 H 26.078923850757537 22.9761415104889 20.374441381590742 H 0.0 **** 0.41
7252 O 10.618697524033701 5.679318085016859 2.2629012426641424 O 0.0 **** -0.82
7253 H 10.082069744457744 5.6173569673010615 1.3923339283899736 H 0.0 **** 0.41
7254 H 10.368207580330745 6.601373170553531 2.594536539366672 H 0.0 **** 0.41
7255 O 10.404678914117664 7.483924844841937 19.378565452237506 O 0.0 **** -0.82
7256 H 11.273652908632357 7.938269926324807 19.502141858770287 H 0.0 **** 0.41
7257 H 10.594689368190894 6.613460100596775 18.933425052380187 H 0.0 **** 0.41
7258 O 49.110119562154026 34.403762637627835 26.814959743736722 O 0.0 **** -0.82
7259 H 49.34019126714573 34.59798017300059 27.81452972772017 H 0.0 **** 0.41
7260 H 48.40019608316458 35.064546923736316 26.514521415705296 H 0.0 **** 0.41
7261 O 41.28651922359948 12.210105415781719 19.598491857799743 O 0.0 **** -0.82
7262 H 41.00298412992134 11.206055306805979 19.378409800190482 H 0.0 **** 0.41
7263 H 40.94598638396099 12.47992348117944 20.49953733146458 H 0.0 **** 0.41
7264 O 46.229824188995224 18.84047239881825 21.089850579648715 O 0.0 **** -0.82
7265 H 45.521230659624194 18.136043926926657 21.024708149834378 H 0.0 **** 0.41
7266 H 45.90531224367021 19.713170365193044 20.758841482130215 H 0.0 **** 0.41
7267 O 45.333061974331876 49.26324352867774 44.08638609622107 O 0.0 **** -0.82
7268 H 45.86937534988408 48.55821329309555 43.626078818169425 H 0.0 **** 0.41
7269 H 44.483419588569674 48.755838264633155 44.24299904001082 H 0.0 **** 0.41
7270 O 16.612629053045385 31.665559706166672 13.677284330018843 O 0.0 **** -0.82
7271 H 16.921811218884482 30.710683930038726 13.940767361745145 H 0.0 **** 0.41
7272 H 16.5835524951633 32.07683295451424 14.63543860064172 H 0.0 **** 0.41
7273 O 35.61833773888408 43.220957548057335 6.33659945097776 O 0.0 **** -0.82
7274 H 34.7021937792405 43.46675477601935 6.722797144354975 H 0.0 **** 0.41
7275 H 35.75052966401611 42.21952511711198 6.23817142064479 H 0.0 **** 0.41
7276 O 6.118016778450055 38.57314096281931 5.080716045752766 O 0.0 **** -0.82
7277 H 5.286729708971627 38.207141670567836 4.772858291916833 H 0.0 **** 0.41
7278 H 6.670149381407782 37.808872493164344 5.268012379018913 H 0.0 **** 0.41
7279 O 37.29674741166531 19.75871347261276 4.473590905542871 O 0.0 **** -0.82
7280 H 38.229786359325345 19.485110512841782 4.149004213178661 H 0.0 **** 0.41
7281 H 37.45294264743562 19.94419962889475 5.485640819618216 H 0.0 **** 0.41
7282 O 30.131246835855215 18.586016418118977 47.935322616712824 O 0.0 **** -0.82
7283 H 29.713665997576683 19.421172603622892 48.35277499253434 H 0.0 **** 0.41
7284 H 29.365473395670154 17.938567486797055 47.68652756353445 H 0.0 **** 0.41
7285 O 35.550767315790814 27.837373944754027 2.425300229176414 O 0.0 **** -0.82
7286 H 35.39756528034918 27.00186016396579 1.8118248069503857 H 0.0 **** 0.41
7287 H 34.70470560748883 28.350266061809606 2.5781019900592597 H 0.0 **** 0.41
7288 O 48.20902173532546 16.262051950561176 19.709404306604952 O 0.0 **** -0.82
7289 H 47.38536103403546 16.85693074350383 19.69014029601558 H 0.0 **** 0.41
7290 H 48.90788550028242 17.03176700594734 19.626648198913237 H 0.0 **** 0.41
7291 O 22.9722043569419 5.665087571802751 32.789500824051295 O 0.0 **** -0.82
7292 H 22.468428061751812 6.516268813139739 33.01586099140713 H 0.0 **** 0.41
7293 H 22.552752720076295 4.819389950443039 33.185674563504804 H 0.0 **** 0.41
7294 O 49.199720347280135 48.61467750775231 7.8370902101315805 O 0.0 **** -0.82
7295 H 48.72776720160236 47.845377158281615 7.283064926027713 H 0.0 **** 0.41
7296 H 49.649375454264835 49.176151937767685 7.17214306339895 H 0.0 **** 0.41
7297 O 48.011492911032576 9.81810994003213 8.873072189308484 O 0.0 **** -0.82
7298 H 47.62458005124519 9.81570279150818 9.835486404230599 H 0.0 **** 0.41
7299 H 48.832246611774124 9.204465152600335 8.89997942976562 H 0.0 **** 0.41
7300 O 28.37148665069107 12.782850539197124 7.693189568749532 O 0.0 **** -0.82
7301 H 28.867272554772455 13.640588214590847 7.772947221831038 H 0.0 **** 0.41
7302 H 27.451519899365156 13.088704466252613 7.768598955386309 H 0.0 **** 0.41
7303 O 2.0223579108495424 20.580761082591167 43.761156540298046 O 0.0 **** -0.82
7304 H 1.7969773606312414 21.452342495146553 43.30468149499335 H 0.0 **** 0.41
7305 H 2.256543639213746 20.859021516308275 44.653900696173416 H 0.0 **** 0.41
7306 O 45.289704257939185 49.756489859450106 24.573979910658334 O 0.0 **** -0.82
7307 H 45.459094347187545 49.41781066700597 25.556436671604427 H 0.0 **** 0.41
7308 H 44.30706879806459 50.00125039972971 24.699185670300842 H 0.0 **** 0.41
7309 O 32.63551050475595 17.523844374532654 47.57917034711724 O 0.0 **** -0.82
7310 H 31.81875737376368 18.16483801398258 47.7169723125302 H 0.0 **** 0.41
7311 H 33.549426146787205 17.999457902558383 47.519841474268034 H 0.0 **** 0.41
7312 O 4.183040347124411 10.172804273839219 14.987446512081647 O 0.0 **** -0.82
7313 H 4.815533052134448 10.707354170311376 14.438938792327278 H 0.0 **** 0.41
7314 H 4.296761769107988 10.537894849676043 15.922792924245641 H 0.0 **** 0.41
7315 O 7.4650036339274735 49.436809953696034 39.187399119371705 O 0.0 **** -0.82
7316 H 6.967185238807318 49.00779421080968 40.00394565811399 H 0.0 **** 0.41
7317 H 7.616335689130267 50.43636192529602 39.30465567087077 H 0.0 **** 0.41
7318 O 29.56585943803138 21.004553115146596 16.183374294496062 O 0.0 **** -0.82
7319 H 29.016343842573235 20.69097234326847 15.38268100429265 H 0.0 **** 0.41
7320 H 30.53130930294293 21.015921714272878 16.00451650030344 H 0.0 **** 0.41
7321 O 1.229276386558631 37.404603133683025 13.0002786214791 O 0.0 **** -0.82
7322 H 1.9639791098860755 36.93431897016178 12.50694936093035 H 0.0 **** 0.41
7323 H 0.7549349035714954 36.74875103066992 13.520680061107539 H 0.0 **** 0.41
7324 O 20.76327241051455 34.27862068986636 46.571121605020814 O 0.0 **** -0.82
7325 H 20.34208582630399 33.96682642475649 45.67901819973007 H 0.0 **** 0.41
7326 H 21.409540188041515 35.018631748805056 46.291190043562345 H 0.0 **** 0.41
7327 O 16.29598626363314 28.744529127461032 8.475982565981056 O 0.0 **** -0.82
7328 H 16.730264452594895 29.672019334913582 8.475923172752537 H 0.0 **** 0.41
7329 H 16.809834711536624 28.15440663545498 9.133446368581488 H 0.0 **** 0.41
7330 O 36.95142688989884 17.804193674743676 16.136370463559444 O 0.0 **** -0.82
7331 H 36.6425568820764 18.087347729150967 15.205931940274894 H 0.0 **** 0.41
7332 H 37.784433513166604 17.28645091196572 15.906900514491308 H 0.0 **** 0.41
7333 O 21.845281406987112 32.69788214116525 42.38086225482291 O 0.0 **** -0.82
7334 H 22.64028157217018 33.027856532471965 42.94872686235029 H 0.0 **** 0.41
7335 H 22.22310523455046 31.89461062040635 41.923397353070676 H 0.0 **** 0.41
7336 O 11.29314011371416 38.86750240749436 16.363328596759075 O 0.0 **** -0.82
7337 H 12.136793347616546 38.30450138473856 16.346726623852806 H 0.0 **** 0.41
7338 H 10.657346119574555 38.59254780122905 15.640475508745427 H 0.0 **** 0.41
7339 O 9.130297046527266 17.970419507758905 21.776449393735316 O 0.0 **** -0.82
7340 H 9.433600571277546 17.0438028533338 21.473890629141444 H 0.0 **** 0.41
7341 H 9.336710883972184 18.540046566801237 20.99275536764155 H 0.0 **** 0.41
7342 O 26.025491436764685 49.97129918703633 25.227553849537216 O 0.0 **** -0.82
7343 H 26.229090616518025 50.7613405851793 24.64118279590028 H 0.0 **** 0.41
7344 H 26.332210654684847 49.22481206068307 24.718751282915736 H 0.0 **** 0.41
7345 O 43.17233436597364 4.055934387604758 13.8751852372053 O 0.0 **** -0.82
7346 H 43.4339171843327 4.424522624214035 12.988231258426069 H 0.0 **** 0.41
7347 H 43.97917796637006 4.138512950733961 14.506862879949026 H 0.0 **** 0.41
7348 O 31.467092094385354 47.53678412831784 22.421887350517785 O 0.0 **** -0.82
7349 H 31.018255467350272 47.75448395491297 21.48657545937074 H 0.0 **** 0.41
7350 H 30.926111091294782 46.735205086725045 22.716073842704304 H 0.0 **** 0.41
7351 O 37.553746185215495 14.148503758500823 26.92684484213784 O 0.0 **** -0.82
7352 H 38.13277699218765 14.741840690366928 26.306765819104356 H 0.0 **** 0.41
7353 H 37.41677499050535 13.246505633716467 26.43920614696522 H 0.0 **** 0.41
7354 O 49.601465728412634 48.01904548380551 35.35415884521744 O 0.0 **** -0.82
7355 H 48.7495122913004 47.698383882866324 35.81225986814829 H 0.0 **** 0.41
7356 H 49.32085640474097 48.15467783939756 34.43661986958551 H 0.0 **** 0.41
7357 O 31.528963101943546 22.851001948805504 10.578914190767946 O 0.0 **** -0.82
7358 H 30.807377119447878 23.605024978382797 10.515398439850912 H 0.0 **** 0.41
7359 H 32.45542440923043 23.283245293334893 10.37562632329233 H 0.0 **** 0.41
7360 O 27.39043469402818 48.102516144356876 17.221487512879122 O 0.0 **** -0.82
7361 H 27.490467961898737 48.5420868555852 16.317068980736224 H 0.0 **** 0.41
7362 H 28.18032215692141 47.47828124192039 17.38702670357027 H 0.0 **** 0.41
7363 O 11.24659373295966 1.613781160835991 34.60130100758103 O 0.0 **** -0.82
7364 H 10.732767685001836 2.506848625691262 34.49171647786623 H 0.0 **** 0.41
7365 H 11.322790012045745 1.3999572999085714 35.61099896953259 H 0.0 **** 0.41
7366 O 11.516883596151025 47.16884086038699 20.5276963902418 O 0.0 **** -0.82
7367 H 10.774087562311836 47.13237955181663 21.229695327777854 H 0.0 **** 0.41
7368 H 12.378602800160284 47.47282989791278 21.049578116469842 H 0.0 **** 0.41
7369 O 31.823199097296335 2.4981522090951054 43.71359177172567 O 0.0 **** -0.82
7370 H 31.370642635064605 2.0347590594227256 42.93246113398412 H 0.0 **** 0.41
7371 H 32.773693931509165 2.8260303365650556 43.39912427243632 H 0.0 **** 0.41
7372 O 9.696405322761805 13.293093771417515 16.858276313040548 O 0.0 **** -0.82
7373 H 9.758663045459778 12.333683572114836 17.179864762870835 H 0.0 **** 0.41
7374 H 8.744423636985525 13.355665452899546 16.54075078680026 H 0.0 **** 0.41
7375 O 48.685995153109936 27.550102020336173 41.24265775703345 O 0.0 **** -0.82
7376 H 49.670848042158475 27.685789785073638 41.063192306860024 H 0.0 **** 0.41
7377 H 48.66747152884832 27.215876185482138 42.247028944748 H 0.0 **** 0.41
7378 O 19.13864322284928 34.71551991236926 25.346043658022488 O 0.0 **** -0.82
7379 H 19.99426728269352 34.84183029903839 25.872834978945335 H 0.0 **** 0.41
7380 H 18.67194283519888 35.58420003649964 25.200570828593367 H 0.0 **** 0.41
7381 O 29.507554705596917 29.26110473968089 3.1292160445013693 O 0.0 **** -0.82
7382 H 28.663938126643753 29.381348800430924 3.620961421259217 H 0.0 **** 0.41
7383 H 30.066950211338945 28.474377759499184 3.4785194851624013 H 0.0 **** 0.41
7384 O 13.348302292076227 1.1748551522815203 9.36427029220662 O 0.0 **** -0.82
7385 H 13.324715110140229 1.3385515047620893 10.33874405523666 H 0.0 **** 0.41
7386 H 12.435083198307861 0.7594969943562169 9.1481269707334 H 0.0 **** 0.41
7387 O 22.68406495107557 29.144723502293893 31.07038820470241 O 0.0 **** -0.82
7388 H 22.74633991830686 28.940875778003264 32.08352439964906 H 0.0 **** 0.41
7389 H 23.072774866507245 30.071335032627733 30.95330563908217 H 0.0 **** 0.41
7390 O 15.064732876231615 43.558143215748686 36.32267829701393 O 0.0 **** -0.82
7391 H 14.469474221128957 43.02263288802269 35.68289718025323 H 0.0 **** 0.41
7392 H 15.707695993725595 44.0366090428301 35.723890124438725 H 0.0 **** 0.41
7393 O 46.463089817089546 42.770459394598845 9.221356455882903 O 0.0 **** -0.82
7394 H 46.98681854101102 43.624875983921385 8.955920039077812 H 0.0 **** 0.41
7395 H 46.88246919079374 42.66430043449202 10.13323982290277 H 0.0 **** 0.41
7396 O 47.75979675349064 16.61950363617476 11.142740876314576 O 0.0 **** -0.82
7397 H 47.22941124027024 17.444007507725104 10.850872454043504 H 0.0 **** 0.41
7398 H 48.18154908155555 16.26205904309315 10.301307764785768 H 0.0 **** 0.41
7399 O 47.58062207085441 21.511535721133193 11.557616301333553 O 0.0 **** -0.82
7400 H 46.8042838546443 22.208909114665286 11.74910272759146 H 0.0 **** 0.41
7401 H 48.31417872767842 21.83498567765421 12.167985524695224 H 0.0 **** 0.41
7402 O 45.305670693618865 35.78835325427198 37.29059006546342 O 0.0 **** -0.82
7403 H 45.57099775366895 34.89364399915685 37.689077410863035 H 0.0 **** 0.41
7404 H 45.10592053548835 35.71220082379104 36.32407863831122 H 0.0 **** 0.41
7405 O 20.425297528061154 18.031978803366886 16.314923843392332 O 0.0 **** -0.82
7406 H 20.641021013242977 17.053380203495337 16.2147871654962 H 0.0 **** 0.41
7407 H 20.67740672536173 18.233182774335962 15.350319833219242 H 0.0 **** 0.41
7408 O 28.29165755697945 0.46608078491090055 28.030960032775063 O 0.0 **** -0.82
7409 H 27.853189922499244 -0.3492882364480394 27.681200014765206 H 0.0 **** 0.41
7410 H 27.58208927303212 1.197963422419413 27.942759641157334 H 0.0 **** 0.41
7411 O 25.33320393511427 0.6909458242874891 43.322433160404294 O 0.0 **** -0.82
7412 H 24.530147680835782 0.5019266034572993 42.66035930000947 H 0.0 **** 0.41
7413 H 25.158522377218674 1.5193668335955692 43.929705460933576 H 0.0 **** 0.41
7414 O 0.9887294984515848 35.55476606535001 34.46012270035848 O 0.0 **** -0.82
7415 H 0.4725659297535752 35.61737261066308 35.330506884547674 H 0.0 **** 0.41
7416 H 0.3218242337519839 35.590370544193775 33.727036741585394 H 0.0 **** 0.41
7417 O 24.171373084660694 46.69251404423668 8.292811132073794 O 0.0 **** -0.82
7418 H 23.59659852659047 46.537023158224464 7.498061154654856 H 0.0 **** 0.41
7419 H 25.077216332586662 46.86259033730298 7.8554452401770005 H 0.0 **** 0.41
7420 O 30.74140089817611 6.07163224015351 1.2891034806087234 O 0.0 **** -0.82
7421 H 30.202829433490315 6.087957219901733 0.39537013599060344 H 0.0 **** 0.41
7422 H 31.695745533450516 6.051799732737843 0.9656939784126877 H 0.0 **** 0.41
7423 O 42.084424358354845 4.4914290163898585 4.700125369885026 O 0.0 **** -0.82
7424 H 42.778015935453276 4.639963670097487 5.457582845286323 H 0.0 **** 0.41
7425 H 42.62254370758109 4.15118788293411 3.907019065649271 H 0.0 **** 0.41
7426 O 42.025520963908555 42.79223855609421 5.563343623725043 O 0.0 **** -0.82
7427 H 41.45449029498224 42.23713583192627 4.912764056765735 H 0.0 **** 0.41
7428 H 41.41796283907113 43.45018375419418 6.055744742738372 H 0.0 **** 0.41
7429 O 14.452853104183987 1.7032961501918222 26.823087461295483 O 0.0 **** -0.82
7430 H 15.13730759033379 0.9478440060187937 27.103689028145652 H 0.0 **** 0.41
7431 H 15.022579835641395 2.335167333159448 26.29682897922831 H 0.0 **** 0.41
7432 O 22.166652961734023 7.3762911471196935 21.89102764054995 O 0.0 **** -0.82
7433 H 21.441114979052042 7.24045976384365 21.221236286926278 H 0.0 **** 0.41
7434 H 22.121311924654574 8.384486722425596 22.15480859302404 H 0.0 **** 0.41
7435 O 44.85703956039778 0.08503365262097873 0.5032431675643348 O 0.0 **** -0.82
7436 H 44.8283442900459 -0.9068021060850526 0.28373152395674045 H 0.0 **** 0.41
7437 H 43.925661039181726 0.5206332516642931 0.576883419657869 H 0.0 **** 0.41
7438 O 49.117034051572645 14.230936094635577 21.236238037686476 O 0.0 **** -0.82
7439 H 48.79831375664024 14.843997722381458 20.47196397334085 H 0.0 **** 0.41
7440 H 50.17247430195592 14.17407926788157 21.26653313082383 H 0.0 **** 0.41
7441 O 38.04527364429122 38.87493060516772 48.99307224674013 O 0.0 **** -0.82
7442 H 38.59826552879857 38.29066144984915 48.32940032090459 H 0.0 **** 0.41
7443 H 37.44044371279318 38.15843696316155 49.51907276272372 H 0.0 **** 0.41
7444 O 5.93682630483756 5.205546265997398 22.793811430517284 O 0.0 **** -0.82
7445 H 6.082188092549629 5.106143480961137 21.82863125436983 H 0.0 **** 0.41
7446 H 5.639387444257935 6.109483704678958 22.866879344713524 H 0.0 **** 0.41
7447 O 21.902425660009968 22.388224744069454 45.17540723354914 O 0.0 **** -0.82
7448 H 21.557034014784406 22.138266087131665 44.26732860697085 H 0.0 **** 0.41
7449 H 22.864892657661457 22.61866355084359 44.96312547632198 H 0.0 **** 0.41
7450 O 43.67376578156245 14.065087433612987 24.75165352795473 O 0.0 **** -0.82
7451 H 43.15833347428539 14.92933725815216 24.55101757118679 H 0.0 **** 0.41
7452 H 42.954320090798774 13.417527730039822 25.081287718345862 H 0.0 **** 0.41
7453 O 13.852873789207777 15.842037315695265 37.11136387201533 O 0.0 **** -0.82
7454 H 13.447994323079335 16.614824572555662 37.66679305468764 H 0.0 **** 0.41
7455 H 14.327423555035736 15.287004552581834 37.87845866344979 H 0.0 **** 0.41
7456 O 33.89420464091576 16.931704571488535 8.861572866332814 O 0.0 **** -0.82
7457 H 34.14079287949916 17.806134557484544 8.501414661318023 H 0.0 **** 0.41
7458 H 34.4127704083668 16.639498634316013 9.693599445268717 H 0.0 **** 0.41
7459 O 4.075134409793875 27.96367001408655 7.594065147391769 O 0.0 **** -0.82
7460 H 3.1240689016924863 28.06616250702609 7.276292197187007 H 0.0 **** 0.41
7461 H 4.671385327414845 28.533222499529046 6.902847700258334 H 0.0 **** 0.41
7462 O 25.39342544945718 0.13827819453573953 13.119273951594977 O 0.0 **** -0.82
7463 H 24.416160292741473 0.005479257091231204 13.311291300847635 H 0.0 **** 0.41
7464 H 25.55504732391673 1.167572331147517 13.215438508555799 H 0.0 **** 0.41
7465 O 38.00021297017239 30.798734825000004 25.04007197268229 O 0.0 **** -0.82
7466 H 38.07332756756725 31.60825581313071 24.358594629388126 H 0.0 **** 0.41
7467 H 37.4792012907564 31.187149527922415 25.83240926411173 H 0.0 **** 0.41
7468 O 26.891980884227493 31.152044846289424 22.852402648381343 O 0.0 **** -0.82
7469 H 27.38329430623527 31.923143459346637 23.25279570090258 H 0.0 **** 0.41
7470 H 26.169763440036192 31.376253785059056 22.11449573906512 H 0.0 **** 0.41
7471 O 41.214322420028296 2.8865504745740598 10.67245657909585 O 0.0 **** -0.82
7472 H 40.74157778957721 3.3650825704351823 11.468293376763128 H 0.0 **** 0.41
7473 H 42.168733970797526 3.004546032001215 10.927984335973413 H 0.0 **** 0.41
7474 O 5.047162876635186 32.715632261543504 25.37875011774511 O 0.0 **** -0.82
7475 H 5.318600760515981 33.519139435000255 24.79048366658944 H 0.0 **** 0.41
7476 H 5.822704236710671 32.17437737741258 25.715850261671957 H 0.0 **** 0.41
7477 O 20.87955979689986 6.5321369821328545 19.744669482429703 O 0.0 **** -0.82
7478 H 20.510746728819797 7.140926851776946 19.031252531599225 H 0.0 **** 0.41
7479 H 21.25250017180355 5.7821702194447155 19.186834809942113 H 0.0 **** 0.41
7480 O 38.17770134754411 21.641323182508433 2.687752910416023 O 0.0 **** -0.82
7481 H 37.96743877674444 20.99297141627006 3.408544477261458 H 0.0 **** 0.41
7482 H 39.14544547013865 21.944887916954713 2.870005612820215 H 0.0 **** 0.41
7483 O 2.8102553641759696 35.635890198748534 48.238752290102894 O 0.0 **** -0.82
7484 H 3.0424583629605966 36.334472969958405 48.897240654502795 H 0.0 **** 0.41
7485 H 3.7114772649610575 35.246000843112824 48.00703742324125 H 0.0 **** 0.41
7486 O 0.8291430546274086 25.87082935316499 13.52881896933905 O 0.0 **** -0.82
7487 H 1.02638034966823 26.75989590018967 13.13231456633674 H 0.0 **** 0.41
7488 H 1.7014309018516585 25.35254351502389 13.676419399661857 H 0.0 **** 0.41
7489 O 17.85983269260774 37.42171229173424 48.59677549515514 O 0.0 **** -0.82
7490 H 18.769228281646377 36.963187385811416 48.535495397264626 H 0.0 **** 0.41
7491 H 17.9267871368327 38.41126726873163 48.3552290092193 H 0.0 **** 0.41
7492 O 24.957920106619316 28.075970849340134 8.123319497674002 O 0.0 **** -0.82
7493 H 25.056765110932176 27.11918760866812 7.945848765503599 H 0.0 **** 0.41
7494 H 25.320227789008165 28.141930540430096 9.053733780102023 H 0.0 **** 0.41
7495 O 8.362969466544612 29.304129917492244 7.737573397531578 O 0.0 **** -0.82
7496 H 8.544351512621471 29.991806025527232 6.952351537015017 H 0.0 **** 0.41
7497 H 9.270021742137015 29.080641185050148 8.09484317513882 H 0.0 **** 0.41
7498 O 24.306483492562933 41.80817590097981 19.44066391062861 O 0.0 **** -0.82
7499 H 24.670011402115126 42.65728230107542 18.99551451142967 H 0.0 **** 0.41
7500 H 23.551612415713343 42.05875435508511 20.02120563953495 H 0.0 **** 0.41
7501 O 41.669150504580394 19.339182774198413 23.266154921028637 O 0.0 **** -0.82
7502 H 40.67521350034567 19.370934808013658 22.94497922117149 H 0.0 **** 0.41
7503 H 42.22391053045408 19.973842715279712 22.666704697117346 H 0.0 **** 0.41
7504 O 48.87822207120246 14.459102598883577 27.93781971215888 O 0.0 **** -0.82
7505 H 48.09920391239938 14.254844704483274 28.595981109824873 H 0.0 **** 0.41
7506 H 48.66688435136962 13.857062450609375 27.08062738122417 H 0.0 **** 0.41
7507 O 32.469366278373656 45.319254256200665 12.744771475235602 O 0.0 **** -0.82
7508 H 31.4493547362314 45.28215364654259 12.736322817267263 H 0.0 **** 0.41
7509 H 32.75364354491842 45.972531102962314 13.471826226575761 H 0.0 **** 0.41
7510 O 35.755360928517874 18.190783649390333 40.51139643609662 O 0.0 **** -0.82
7511 H 36.37979790110175 18.193309646263554 39.64262587027095 H 0.0 **** 0.41
7512 H 34.845772631262506 18.215544479690067 40.12346928184579 H 0.0 **** 0.41
7513 O 21.64657009962444 23.6750668751342 4.083794382296652 O 0.0 **** -0.82
7514 H 20.80376705172405 24.1882598782203 4.384917643646901 H 0.0 **** 0.41
7515 H 21.936215256786962 23.248280821114612 4.996753205300024 H 0.0 **** 0.41
7516 O 3.2953482279585984 23.695702620286497 44.0747676348927 O 0.0 **** -0.82
7517 H 3.9605776171698963 23.22524600310905 43.469290406476034 H 0.0 **** 0.41
7518 H 3.518886302088376 23.3879806030843 45.02727979762055 H 0.0 **** 0.41
7519 O 49.167133775773664 34.05808906281362 3.955468714767822 O 0.0 **** -0.82
7520 H 48.62789870146563 33.2078573444319 4.10645445137476 H 0.0 **** 0.41
7521 H 48.706849313360806 34.636519721615365 3.2583604024078467 H 0.0 **** 0.41
7522 O 3.6732029726144972 43.498885571658434 14.958122818859366 O 0.0 **** -0.82
7523 H 3.798984547195701 43.73798523323901 13.924638061578626 H 0.0 **** 0.41
7524 H 4.606324308683895 43.1390008339713 15.216974680278355 H 0.0 **** 0.41
7525 O 4.169744172396761 31.155287667903615 39.023750561742496 O 0.0 **** -0.82
7526 H 4.836749216511421 31.751594114036408 38.55959808476499 H 0.0 **** 0.41
7527 H 4.367001340179684 31.420091466134878 39.98868947058209 H 0.0 **** 0.41
7528 O 5.113116350781183 32.02219017175973 41.32105656239396 O 0.0 **** -0.82
7529 H 5.168967898752527 33.061066702022536 41.30268168017892 H 0.0 **** 0.41
7530 H 5.268397837788278 31.87466111997001 42.32798249729037 H 0.0 **** 0.41
7531 O 47.834812629102075 6.015713290087935 28.746015517023263 O 0.0 **** -0.82
7532 H 47.78055383177774 6.484033699411839 27.808023700939703 H 0.0 **** 0.41
7533 H 48.226004679222555 5.081952460961185 28.519890194936693 H 0.0 **** 0.41
7534 O 15.700784514655574 16.396670810682593 35.309061595802966 O 0.0 **** -0.82
7535 H 15.23009756963149 16.226071452058804 34.43788867590149 H 0.0 **** 0.41
7536 H 14.928866199961412 16.058496909074023 35.95751932187856 H 0.0 **** 0.41
7537 O 38.54814425809961 17.167965794127184 21.87846788652608 O 0.0 **** -0.82
7538 H 38.54313869012891 16.54365916966023 21.022372347926733 H 0.0 **** 0.41
7539 H 38.83531293023046 16.65418143048049 22.63326105910646 H 0.0 **** 0.41
7540 O 12.836891392094737 33.40536767332621 19.613129289848743 O 0.0 **** -0.82
7541 H 12.630687043657781 33.878656483188244 18.735796629398465 H 0.0 **** 0.41
7542 H 11.854656965569374 33.051027903855385 19.819356802041867 H 0.0 **** 0.41
7543 O 8.089958019261957 46.7023662534459 7.868736135780225 O 0.0 **** -0.82
7544 H 7.839944763817243 45.77453125084218 7.559659140400896 H 0.0 **** 0.41
7545 H 7.529579670549332 46.80595463212707 8.640380642120725 H 0.0 **** 0.41
7546 O 9.143292310750516 23.029866506426444 45.27592514637089 O 0.0 **** -0.82
7547 H 9.67342618675964 23.373064061069577 46.087019796649905 H 0.0 **** 0.41
7548 H 9.840107477039446 22.891533845273532 44.594351757543826 H 0.0 **** 0.41
7549 O 9.566706758201294 1.3911196462660342 9.900749311045052 O 0.0 **** -0.82
7550 H 9.037008228936989 0.6038263090700582 10.249874141205117 H 0.0 **** 0.41
7551 H 10.009840563841927 1.0609283961934963 9.07578374457974 H 0.0 **** 0.41
7552 O 38.15453287409954 48.97088879047864 18.892913413047477 O 0.0 **** -0.82
7553 H 38.12378038549195 48.29732150281887 19.69827174301099 H 0.0 **** 0.41
7554 H 38.62974719518304 49.80941967731673 19.323441614398703 H 0.0 **** 0.41
7555 O 6.742557720997368 34.797652098944376 18.23134882946157 O 0.0 **** -0.82
7556 H 5.698392452691924 34.95886365288934 18.38749121944983 H 0.0 **** 0.41
7557 H 6.764616173421181 33.79069596624212 18.16892040596233 H 0.0 **** 0.41
7558 O 6.308099897651601 34.29467096647313 46.269708433030914 O 0.0 **** -0.82
7559 H 5.902409393335276 34.38835475703902 47.18916613936706 H 0.0 **** 0.41
7560 H 6.865335824099425 33.45275432411957 46.4526435981395 H 0.0 **** 0.41
7561 O 40.7355564600903 43.971207161142395 27.869373014285088 O 0.0 **** -0.82
7562 H 40.33612501689101 44.822006218565804 28.301824327756435 H 0.0 **** 0.41
7563 H 39.91590934198322 43.48642469659732 27.59491015095901 H 0.0 **** 0.41
7564 O 32.85288391634518 36.00789550669991 0.6986406346733686 O 0.0 **** -0.82
7565 H 32.66670004057811 35.467731464100375 1.5393900805167273 H 0.0 **** 0.41
7566 H 32.54137371191912 36.94042157184113 0.9415632203480391 H 0.0 **** 0.41
7567 O 12.751180518261307 6.72701744509438 4.674959845762273 O 0.0 **** -0.82
7568 H 13.226768349812309 6.300881435359327 3.8419869851635298 H 0.0 **** 0.41
7569 H 13.39161416303142 6.606886562889306 5.467173651438667 H 0.0 **** 0.41
7570 O 31.808655000887136 20.339638610682112 9.477029860376488 O 0.0 **** -0.82
7571 H 31.920702163865244 21.281423358862654 9.850739760091436 H 0.0 **** 0.41
7572 H 32.6938164820669 20.21256035282399 9.03631573467745 H 0.0 **** 0.41
7573 O 23.519945392326598 26.659108945407553 42.79969921466252 O 0.0 **** -0.82
7574 H 22.98311668589738 26.9997008029855 43.6093240611895 H 0.0 **** 0.41
7575 H 24.45292902445967 26.934647705145863 43.20985540998566 H 0.0 **** 0.41
7576 O 25.585637877706866 49.20478398508292 5.467231727655672 O 0.0 **** -0.82
7577 H 24.688402626019684 49.23988278628501 5.073868549066079 H 0.0 **** 0.41
7578 H 25.702566432229723 48.315896708723066 5.977589686414613 H 0.0 **** 0.41
7579 O 38.80699981686686 4.68002050513837 9.172286571188721 O 0.0 **** -0.82
7580 H 38.830152366942286 5.444981975922924 9.780416088343365 H 0.0 **** 0.41
7581 H 39.72273618535915 4.296886557459355 9.316091132080885 H 0.0 **** 0.41
7582 O 30.06842602450749 33.3537433728903 21.53617085005072 O 0.0 **** -0.82
7583 H 29.285847245283836 33.371142610161876 22.186721594838517 H 0.0 **** 0.41
7584 H 30.615769389954234 34.247673951801694 21.47289625718987 H 0.0 **** 0.41
7585 O 41.462933400208655 43.351569534331254 48.82016042001514 O 0.0 **** -0.82
7586 H 41.82581160842779 42.433289592376426 49.062745749295644 H 0.0 **** 0.41
7587 H 40.44404884394377 43.301892304485285 48.73975185022531 H 0.0 **** 0.41
7588 O 16.481425766459704 49.01873015003992 5.207610902160056 O 0.0 **** -0.82
7589 H 16.034104643172217 48.09953041886109 5.058878238005541 H 0.0 **** 0.41
7590 H 17.14872415326404 49.19542301134155 4.491301350231183 H 0.0 **** 0.41
7591 O 31.651398323017254 26.495717837506355 25.93954606857491 O 0.0 **** -0.82
7592 H 30.840191592211532 26.038652396440927 25.449084432667565 H 0.0 **** 0.41
7593 H 31.80570123489159 27.228911864921006 25.29863813809336 H 0.0 **** 0.41
7594 O 35.10072045371862 43.34276796120327 41.36816007324534 O 0.0 **** -0.82
7595 H 34.30052788179755 42.97260989405157 40.92996827296425 H 0.0 **** 0.41
7596 H 35.23110828170918 44.235726733660215 40.864653963700945 H 0.0 **** 0.41
7597 O 22.716850450124458 23.356618829972685 34.285755361185565 O 0.0 **** -0.82
7598 H 21.910380866676967 23.86091185830131 34.708743573968505 H 0.0 **** 0.41
7599 H 23.140528059557443 22.891734934237046 35.108488262238126 H 0.0 **** 0.41
7600 O 21.257566821280335 10.049058496963589 39.81563496902061 O 0.0 **** -0.82
7601 H 20.41590246149441 9.629683042139604 40.067393222779806 H 0.0 **** 0.41
7602 H 21.09909054872188 10.64261589304077 39.03334968482496 H 0.0 **** 0.41
7603 O 9.811460720084398 36.898327964228805 49.02592725280347 O 0.0 **** -0.82
7604 H 9.906281490958293 35.922163609382466 48.76106067321642 H 0.0 **** 0.41
7605 H 9.54323189875295 37.50417045481342 48.22949769052313 H 0.0 **** 0.41
7606 O 15.9013958512013 24.53411554781047 18.87104221037876 O 0.0 **** -0.82
7607 H 16.2409209897975 23.89439471056963 19.579426111531532 H 0.0 **** 0.41
7608 H 16.652059473951482 24.432302177349012 18.14051553361014 H 0.0 **** 0.41
7609 O 39.31773363792116 8.612874280413955 38.53941893978433 O 0.0 **** -0.82
7610 H 38.553465861189004 9.014104267073833 38.03945564741352 H 0.0 **** 0.41
7611 H 39.8549057289327 9.481075681332058 38.7232806073527 H 0.0 **** 0.41
7612 O 27.582620403214122 0.23944395822919518 41.809155095508835 O 0.0 **** -0.82
7613 H 26.72872744967217 0.4614690022062362 42.343193443120605 H 0.0 **** 0.41
7614 H 27.24229819395462 -0.18220072133681242 40.989576216539206 H 0.0 **** 0.41
7615 O 36.91247943830372 22.545388830978656 6.823370102968755 O 0.0 **** -0.82
7616 H 37.034794494122295 22.588657154800103 7.827526741098155 H 0.0 **** 0.41
7617 H 37.56191673269133 23.257050051052108 6.42247132726935 H 0.0 **** 0.41
7618 O 47.79395420510627 37.244952884159524 1.5538575939234036 O 0.0 **** -0.82
7619 H 47.90271409739711 38.301136182440764 1.5458055169719387 H 0.0 **** 0.41
7620 H 47.90659248978059 36.816766242408725 0.6616852683011203 H 0.0 **** 0.41
7621 O 17.163402300723284 38.59083206811603 22.754497156312123 O 0.0 **** -0.82
7622 H 17.688479800420353 38.40140970035058 23.610954174024535 H 0.0 **** 0.41
7623 H 16.697280481772935 39.517345813628 22.865430604911403 H 0.0 **** 0.41
7624 O 24.513418064080597 32.89372877845639 47.52976733775969 O 0.0 **** -0.82
7625 H 25.322311186849518 33.335252461674365 47.07268552222302 H 0.0 **** 0.41
7626 H 24.419557847501864 33.21045144493212 48.48536568921277 H 0.0 **** 0.41
7627 O 43.36474454799756 42.93810005119995 36.306132695966085 O 0.0 **** -0.82
7628 H 43.24151264474325 43.090189004241424 35.32792707842306 H 0.0 **** 0.41
7629 H 44.38558953826019 42.867973181426365 36.52755132121637 H 0.0 **** 0.41
7630 O 9.61857502769053 5.864612717831712 10.247533909361813 O 0.0 **** -0.82
7631 H 9.956257531884678 5.54577403237451 11.090197652962885 H 0.0 **** 0.41
7632 H 9.309741109046366 5.121856700434776 9.613658446707909 H 0.0 **** 0.41
7633 O 12.981021580994629 49.20067085990673 13.585776726167527 O 0.0 **** -0.82
7634 H 12.083942812340297 48.99440043684333 13.997506687038635 H 0.0 **** 0.41
7635 H 13.545171508361321 48.55500133140987 14.09628971069345 H 0.0 **** 0.41
7636 O 27.29858221689258 16.117227938734267 2.95479734421528 O 0.0 **** -0.82
7637 H 27.039495233818993 15.381171202278077 2.312967668343272 H 0.0 **** 0.41
7638 H 27.90339740158212 15.575778964048155 3.5542612137779614 H 0.0 **** 0.41
7639 O 15.11506669683277 38.88783278882223 42.90587977269237 O 0.0 **** -0.82
7640 H 14.893877950554014 39.77464837425008 43.3123944462451 H 0.0 **** 0.41
7641 H 16.016162630610552 39.087516572281295 42.44254475767055 H 0.0 **** 0.41
7642 O 39.93247348539998 7.564179062398821 24.879272696282534 O 0.0 **** -0.82
7643 H 40.79669353803239 7.139794809859957 24.543864205888568 H 0.0 **** 0.41
7644 H 39.4389462877006 6.937609720760207 25.547859095758554 H 0.0 **** 0.41
7645 O 29.2249890544016 45.769584325830465 22.78370710975129 O 0.0 **** -0.82
7646 H 28.756792593671538 45.00183350137039 22.37461628555522 H 0.0 **** 0.41
7647 H 28.94648418605475 46.47361004029505 22.090420570628666 H 0.0 **** 0.41
7648 O 24.302591658125923 48.43973761202979 2.0995934006229646 O 0.0 **** -0.82
7649 H 25.302711693975205 48.601406076857344 2.2694889535632234 H 0.0 **** 0.41
7650 H 23.84247715058743 48.70127211142162 2.9993060432404945 H 0.0 **** 0.41
7651 O 43.727008588914615 26.51973206243907 20.883811009221596 O 0.0 **** -0.82
7652 H 43.212359908011685 26.64273765348889 20.01546307915091 H 0.0 **** 0.41
7653 H 43.36975519746472 25.688944329878677 21.367415054104814 H 0.0 **** 0.41
7654 O 33.68521947597412 34.32988913420214 28.263949716990393 O 0.0 **** -0.82
7655 H 34.21367619188936 35.13246945632624 27.853425899406602 H 0.0 **** 0.41
7656 H 33.3112520022066 33.70032277705061 27.581283296685317 H 0.0 **** 0.41
7657 O 9.886139100941874 47.67090737725101 23.131461058178186 O 0.0 **** -0.82
7658 H 9.919611858537865 47.00392260193698 23.922613038304405 H 0.0 **** 0.41
7659 H 10.54893072970203 48.4105599636876 23.379117165181146 H 0.0 **** 0.41
7660 O 43.00437223352314 35.87491479371398 13.722604597983382 O 0.0 **** -0.82
7661 H 42.85980889455205 35.053594476386465 14.367008656289563 H 0.0 **** 0.41
7662 H 43.714373751544414 36.435372565002005 14.18107826674596 H 0.0 **** 0.41
7663 O 8.253227954440522 24.405975571511107 11.41272071564886 O 0.0 **** -0.82
7664 H 8.409492400128578 24.492933274634893 12.378957534832905 H 0.0 **** 0.41
7665 H 7.816090412577913 25.26629055455868 11.291754385064598 H 0.0 **** 0.41
7666 O 31.921826152675173 31.75179688421406 22.73995806802466 O 0.0 **** -0.82
7667 H 31.237028093379344 32.36638688230716 22.305127401680437 H 0.0 **** 0.41
7668 H 32.73788412105029 32.14966956935908 22.33567173680227 H 0.0 **** 0.41
7669 O 38.64449796778098 46.62133532504877 11.90752045518937 O 0.0 **** -0.82
7670 H 38.48086203294194 46.908715705651105 10.90141216272449 H 0.0 **** 0.41
7671 H 38.75491739646343 47.54026587354194 12.38075418503027 H 0.0 **** 0.41
7672 O 4.4833787246173245 4.286907513821691 20.03506415839155 O 0.0 **** -0.82
7673 H 4.632807840893015 3.897574293628221 19.107433614877664 H 0.0 **** 0.41
7674 H 4.0065449547420755 3.5371398620202776 20.48640705941878 H 0.0 **** 0.41
7675 O 0.3968846703270904 17.48538500927088 12.396240157472201 O 0.0 **** -0.82
7676 H -0.48447989895750254 17.268815567537022 11.972191571716262 H 0.0 **** 0.41
7677 H 0.6908179582024863 16.581533683859057 12.727173333009201 H 0.0 **** 0.41
7678 O 39.78539341105547 26.60264794614596 36.873741810522596 O 0.0 **** -0.82
7679 H 40.756486121004855 26.607083114479895 36.49819663743901 H 0.0 **** 0.41
7680 H 39.34256749115587 27.380777030946113 36.465284406412245 H 0.0 **** 0.41
7681 O 7.394783054016699 45.59663809456398 16.363408054640374 O 0.0 **** -0.82
7682 H 7.211772680584033 44.78219247955519 15.787239821636327 H 0.0 **** 0.41
7683 H 6.701918272553627 45.65882478773333 17.126107352941695 H 0.0 **** 0.41
7684 O 37.56177288761597 14.623830155892492 24.083002055543258 O 0.0 **** -0.82
7685 H 36.64089097032917 14.950288781709588 23.788771886464016 H 0.0 **** 0.41
7686 H 37.40451765775583 13.612522581897778 24.137012538360793 H 0.0 **** 0.41
7687 O 3.1628183412367865 18.291325491206287 11.657481412800195 O 0.0 **** -0.82
7688 H 2.363722777632925 17.914797327105067 12.112424367209517 H 0.0 **** 0.41
7689 H 3.1462915891371033 17.983502646681575 10.711425737625385 H 0.0 **** 0.41
7690 O 15.939698620319984 25.26793156273779 38.395933018373285 O 0.0 **** -0.82
7691 H 15.160357637942282 25.160501817455852 37.76130841517096 H 0.0 **** 0.41
7692 H 15.711621498914957 24.642005365009396 39.20914448098898 H 0.0 **** 0.41
7693 O 45.31815419840185 37.48571807413256 15.640762529161199 O 0.0 **** -0.82
7694 H 44.98063922159374 38.333059897380366 15.157842345583365 H 0.0 **** 0.41
7695 H 45.967217947494795 37.726840720711905 16.346216818499066 H 0.0 **** 0.41
7696 O 11.207184672332069 3.211452061597102 3.3379450897834104 O 0.0 **** -0.82
7697 H 11.126056218457663 3.29336573569513 4.334408153850944 H 0.0 **** 0.41
7698 H 10.929240860618673 4.0795502330932285 2.886980286211518 H 0.0 **** 0.41
7699 O 38.48444370387384 18.251452327116084 11.357705291383482 O 0.0 **** -0.82
7700 H 39.384206787070006 18.271933182618696 11.866434614468801 H 0.0 **** 0.41
7701 H 38.63213851876278 17.49450688169796 10.73990360765292 H 0.0 **** 0.41
7702 O 3.6433471983073176 1.154129288284169 9.195455517724168 O 0.0 **** -0.82
7703 H 3.9321150621411505 1.5145908483756978 8.264260061698982 H 0.0 **** 0.41
7704 H 4.1582490858390315 1.6913918921822124 9.85376754361934 H 0.0 **** 0.41
7705 O 34.88989442959592 42.11067313123624 21.639828412044494 O 0.0 **** -0.82
7706 H 34.17294354738907 42.25559628120912 22.419440489943838 H 0.0 **** 0.41
7707 H 35.78689929272936 41.86546175458238 22.045318411422045 H 0.0 **** 0.41
7708 O 35.67448739272017 10.397504392829646 32.474483727089044 O 0.0 **** -0.82
7709 H 35.8154077153025 10.041143809993002 31.526231985843403 H 0.0 **** 0.41
7710 H 36.54545755520439 10.087779796161868 32.944050976396944 H 0.0 **** 0.41
7711 O 22.851504697797374 28.637392213599718 45.00588782443945 O 0.0 **** -0.82
7712 H 23.27828068726615 27.793684471101912 45.37355175200201 H 0.0 **** 0.41
7713 H 23.046124178839605 29.31548225475261 45.752059674257104 H 0.0 **** 0.41
7714 O 4.23734307246487 11.765028020687843 38.53112294306163 O 0.0 **** -0.82
7715 H 5.237915987372046 11.60688977628007 38.54117099033556 H 0.0 **** 0.41
7716 H 3.966188834810803 11.105007203725378 37.78910863713457 H 0.0 **** 0.41
7717 O 16.28738064916732 16.30595118185811 9.183726302295346 O 0.0 **** -0.82
7718 H 16.490746496818158 16.035616238652164 8.261097593406033 H 0.0 **** 0.41
7719 H 16.20686046811218 17.345070878742202 9.243508289588714 H 0.0 **** 0.41
7720 O 35.147232206884084 28.287772490474207 39.255453750060475 O 0.0 **** -0.82
7721 H 34.41216077880358 27.939075667632483 38.58686201419351 H 0.0 **** 0.41
7722 H 35.91612561527364 27.591527721596627 39.219884116044 H 0.0 **** 0.41
7723 O 11.535269589304797 16.77821276345948 6.922159874014795 O 0.0 **** -0.82
7724 H 10.891188666403876 16.461681475134228 7.622925289466224 H 0.0 **** 0.41
7725 H 12.014789865981902 17.43208261205286 7.527394668926078 H 0.0 **** 0.41
7726 O 7.158623213357371 26.530868596004694 32.2216388778886 O 0.0 **** -0.82
7727 H 6.878290772066627 26.518854913114524 31.257356369491884 H 0.0 **** 0.41
7728 H 6.861817340462582 27.488870034554225 32.64185953380631 H 0.0 **** 0.41
7729 O 26.692315611619215 34.09033637608529 15.963812543870311 O 0.0 **** -0.82
7730 H 26.243742344497257 34.95806190548279 16.03879049484812 H 0.0 **** 0.41
7731 H 27.170143802094106 33.92683892355379 16.798305427989813 H 0.0 **** 0.41
7732 O 5.466488486798042 23.385017543656957 47.07484253253127 O 0.0 **** -0.82
7733 H 5.009634647277458 23.97318601974932 47.78757048357319 H 0.0 **** 0.41
7734 H 4.715537629476692 22.838846225291604 46.62934457942707 H 0.0 **** 0.41
7735 O 41.8465324501969 42.03060002341383 29.62051455234395 O 0.0 **** -0.82
7736 H 41.64101526185816 42.147292599273584 30.563306395036804 H 0.0 **** 0.41
7737 H 41.74519647478268 42.90862465515362 29.010549251859562 H 0.0 **** 0.41
7738 O 32.966466813927966 49.90526393677017 11.52071895815116 O 0.0 **** -0.82
7739 H 33.33857433264429 50.035846382381415 12.505713825304083 H 0.0 **** 0.41
7740 H 32.02500354291521 50.30663269637223 11.379600924742869 H 0.0 **** 0.41
7741 O 37.50822601521643 48.06247409978162 43.13500624965104 O 0.0 **** -0.82
7742 H 37.50725135858789 48.48872723990745 42.22275914176053 H 0.0 **** 0.41
7743 H 37.60395542779267 48.85409494691579 43.74652857499566 H 0.0 **** 0.41
7744 O 30.687575304699706 31.92845860302615 41.103480973645226 O 0.0 **** -0.82
7745 H 31.39684282928785 31.21913846838381 41.00957597018001 H 0.0 **** 0.41
7746 H 30.51194531230685 31.937822499432034 42.10702765736212 H 0.0 **** 0.41
7747 O 47.327872025384146 7.507865466426249 14.17829444539755 O 0.0 **** -0.82
7748 H 47.2485453123362 6.507195141672095 14.073522400762915 H 0.0 **** 0.41
7749 H 46.76369214560181 7.8032556721162765 13.340478855264896 H 0.0 **** 0.41
7750 O 7.167840213822794 17.717224560041778 23.47970240245914 O 0.0 **** -0.82
7751 H 8.033080262644956 17.93568459964969 22.98460149203683 H 0.0 **** 0.41
7752 H 7.053918896758742 18.51396952080987 24.01605220934384 H 0.0 **** 0.41
7753 O 37.60291896022952 23.648617146764217 28.0431297797541 O 0.0 **** -0.82
7754 H 36.69212213230223 24.024051257947928 28.234001113905723 H 0.0 **** 0.41
7755 H 37.8267042156079 23.09828758269821 28.883041069966435 H 0.0 **** 0.41
7756 O 25.038224390661338 8.010171863926447 13.525608975256008 O 0.0 **** -0.82
7757 H 24.706598555351245 8.3448101489283 12.64916788198134 H 0.0 **** 0.41
7758 H 25.202060362179417 6.970799100375455 13.459180999785996 H 0.0 **** 0.41
7759 O 6.152373366039256 16.55853536641682 9.885085337085158 O 0.0 **** -0.82
7760 H 7.023716339803128 16.86476675902633 10.393387638025551 H 0.0 **** 0.41
7761 H 6.315889156460845 15.66061926448979 9.474489023639137 H 0.0 **** 0.41
7762 O 47.148885128439986 33.54214808054982 1.3556827821436224 O 0.0 **** -0.82
7763 H 47.36915334002458 34.2545177536145 0.664083322673254 H 0.0 **** 0.41
7764 H 46.15456639927872 33.291697589589646 1.359629332728941 H 0.0 **** 0.41
7765 O 16.281201149990974 36.48724855542212 46.41910421422839 O 0.0 **** -0.82
7766 H 15.462718377417456 36.910396738809254 46.730255523800956 H 0.0 **** 0.41
7767 H 17.01395861402109 36.906778903407286 46.93697937250711 H 0.0 **** 0.41
7768 O 15.29367813841893 36.180209117121606 10.752810063613149 O 0.0 **** -0.82
7769 H 14.336451172661633 35.97202502668979 10.661272333310881 H 0.0 **** 0.41
7770 H 15.802310485999229 35.58226837147924 10.127215032815004 H 0.0 **** 0.41
7771 O 28.246053023770383 41.06726438421122 21.604354354525285 O 0.0 **** -0.82
7772 H 28.057249102779863 40.333019585604575 22.290882083521964 H 0.0 **** 0.41
7773 H 27.51742470761096 41.72710809301446 21.85497622172413 H 0.0 **** 0.41
7774 O 45.31436763988647 8.748338312698488 7.215412515469843 O 0.0 **** -0.82
7775 H 45.74533800805401 7.964884606202713 6.812437222282703 H 0.0 **** 0.41
7776 H 45.81026451358507 8.933279083742766 8.051383219149074 H 0.0 **** 0.41
7777 O 32.32992726342479 9.86820559846337 10.447124609178097 O 0.0 **** -0.82
7778 H 33.325729716809235 9.967125329966208 10.597422795406299 H 0.0 **** 0.41
7779 H 31.967081190127324 10.769564461302004 10.195618583048267 H 0.0 **** 0.41
7780 O 47.211462772591254 13.70510668722538 30.039360570587675 O 0.0 **** -0.82
7781 H 46.22943935891521 13.816152279521893 29.79167738933174 H 0.0 **** 0.41
7782 H 47.29655708007377 12.785260093366327 30.507140782747744 H 0.0 **** 0.41
7783 O 39.178324393758054 16.414821323648138 35.880594943994566 O 0.0 **** -0.82
7784 H 39.22874052106656 15.444128916034664 36.200494387985714 H 0.0 **** 0.41
7785 H 39.393609052785095 16.351608249606908 34.889933783949395 H 0.0 **** 0.41
7786 O 35.89451919262859 44.7180738552214 18.688635297640182 O 0.0 **** -0.82
7787 H 36.83653857421614 44.94091506699342 18.50142767403994 H 0.0 **** 0.41
7788 H 35.59406426729516 45.596910120409014 19.113597940222242 H 0.0 **** 0.41
7789 O 11.47298098572569 21.065255545004277 12.085174563176547 O 0.0 **** -0.82
7790 H 12.022936006765498 21.778856976089628 11.553960031293629 H 0.0 **** 0.41
7791 H 10.70815695944257 21.587289708487603 12.454439391744147 H 0.0 **** 0.41
7792 O 40.99897946755229 32.48723739836152 41.22621410694534 O 0.0 **** -0.82
7793 H 40.60073188496672 31.64765758028541 40.776435142845614 H 0.0 **** 0.41
7794 H 40.95557483538229 32.35855134017441 42.19827929269286 H 0.0 **** 0.41
7795 O 11.032883205704312 11.980705199743976 45.14145566869777 O 0.0 **** -0.82
7796 H 11.868422938400558 11.421840077403328 44.96246048169404 H 0.0 **** 0.41
7797 H 11.063426388095937 12.096782383233466 46.1404619733997 H 0.0 **** 0.41
7798 O 29.222921354290342 19.35976095850414 45.46940953944376 O 0.0 **** -0.82
7799 H 28.719920047044564 18.57924913662453 45.009883540610005 H 0.0 **** 0.41
7800 H 29.89664170044871 19.147430975928554 46.177341305281104 H 0.0 **** 0.41
7801 O 8.934162624507916 11.007167059969404 43.58423149763455 O 0.0 **** -0.82
7802 H 9.226317298135495 11.465796135974287 42.68223127551578 H 0.0 **** 0.41
7803 H 9.793318600143929 11.073887096962636 44.11869900309898 H 0.0 **** 0.41
7804 O 41.69696639431772 30.969253943743148 44.66754961999041 O 0.0 **** -0.82
7805 H 41.11674462203881 31.81633202924914 44.79738791288216 H 0.0 **** 0.41
7806 H 41.272940608067564 30.31610985748751 44.102069392250215 H 0.0 **** 0.41
7807 O 6.949504774224652 49.20800861096155 11.272069631095938 O 0.0 **** -0.82
7808 H 7.71239768795585 49.159770169510345 11.940085101270121 H 0.0 **** 0.41
7809 H 6.132491994025364 49.56598450733613 11.65928807056028 H 0.0 **** 0.41
7810 O 46.508306475307464 24.13105847572654 17.89275864045629 O 0.0 **** -0.82
7811 H 46.8912496752991 25.03019041213415 17.463009508875913 H 0.0 **** 0.41
7812 H 46.46170811041461 23.318532918424314 17.304581127750414 H 0.0 **** 0.41
7813 O 48.34440881531523 10.499530660741389 0.2660911494867264 O 0.0 **** -0.82
7814 H 48.88979590327319 10.31214570830784 1.0986799623402277 H 0.0 **** 0.41
7815 H 47.88864862221568 11.379662693770182 0.5025264222423047 H 0.0 **** 0.41
7816 O 47.43971387736797 8.808552300594954 39.15641795739897 O 0.0 **** -0.82
7817 H 47.614735705516125 8.33176745789369 40.013490390889416 H 0.0 **** 0.41
7818 H 46.463272138023925 8.62537373860286 38.82935654333344 H 0.0 **** 0.41
7819 O 6.86971971806069 1.914197613973364 41.310735250996686 O 0.0 **** -0.82
7820 H 7.374914062396101 1.6443756407022478 42.14183087719471 H 0.0 **** 0.41
7821 H 6.152950913452468 2.6319921741954455 41.50945018874816 H 0.0 **** 0.41
7822 O 14.64839292954776 31.436379784916458 9.801565996300276 O 0.0 **** -0.82
7823 H 15.630473862767246 31.231489437087426 9.968845619716936 H 0.0 **** 0.41
7824 H 14.195130762778888 31.39375036640215 10.666929381342532 H 0.0 **** 0.41
7825 O 16.85280292492602 12.835790704564866 32.325827740857584 O 0.0 **** -0.82
7826 H 16.82971651755098 13.796909301211825 32.03901636817924 H 0.0 **** 0.41
7827 H 15.975132674197082 12.365527426505246 32.13958991672647 H 0.0 **** 0.41
7828 O 6.595459691530087 43.272553567087655 29.17441228412569 O 0.0 **** -0.82
7829 H 6.041627095937895 42.451049167240264 29.39864109607194 H 0.0 **** 0.41
7830 H 5.914611920162235 44.11324615063175 29.33127465529823 H 0.0 **** 0.41
7831 O 7.985328064694826 36.46124157761069 37.631261833070305 O 0.0 **** -0.82
7832 H 7.9469896558521 36.86045065921736 36.74272002506301 H 0.0 **** 0.41
7833 H 8.415522953960561 35.52252306945984 37.436475255495886 H 0.0 **** 0.41
7834 O 9.785058482364235 2.560409618371093 19.85381268423245 O 0.0 **** -0.82
7835 H 8.98970560310579 2.3469588686303324 20.432520435763962 H 0.0 **** 0.41
7836 H 9.465502939862247 3.3178104262218198 19.291636776246804 H 0.0 **** 0.41
7837 O 32.4005430538215 25.66535422956333 40.30094207109523 O 0.0 **** -0.82
7838 H 32.96745669882501 26.07413343456718 39.51453943891835 H 0.0 **** 0.41
7839 H 31.985418395778023 24.838209248190147 39.94228265476353 H 0.0 **** 0.41
7840 O 21.209493383897808 15.384620616803717 43.74275788929517 O 0.0 **** -0.82
7841 H 21.241257309680947 16.373699014496427 43.46392363512294 H 0.0 **** 0.41
7842 H 22.053014052841405 15.129804071980484 44.16034290190207 H 0.0 **** 0.41
7843 O 3.113677834865752 40.7111445290557 20.009749485565454 O 0.0 **** -0.82
7844 H 2.5777924427133145 40.24406264546995 19.37431450553489 H 0.0 **** 0.41
7845 H 3.403211643141966 39.99454036254117 20.609950510377285 H 0.0 **** 0.41
7846 O 29.518657070541668 4.302737292604144 39.39255461573231 O 0.0 **** -0.82
7847 H 28.96725084817905 5.190745941592086 39.28124670459822 H 0.0 **** 0.41
7848 H 29.531635265225525 4.364580108640769 40.38233536409044 H 0.0 **** 0.41
7849 O 4.915122032337386 37.51520297570549 32.120815052616976 O 0.0 **** -0.82
7850 H 4.639238293231195 37.351322735562505 31.169837054407658 H 0.0 **** 0.41
7851 H 5.7003364322249865 38.128549160925004 31.91900723068081 H 0.0 **** 0.41
7852 O 1.504937876854275 14.74504832615557 37.0604959735891 O 0.0 **** -0.82
7853 H 2.4447932167853454 14.34519790816193 37.0942059545185 H 0.0 **** 0.41
7854 H 1.4398913976422523 15.383395059205839 36.269036147242154 H 0.0 **** 0.41
7855 O 6.7108792839737585 24.884625469193963 41.811161871595175 O 0.0 **** -0.82
7856 H 5.959596221772049 25.53245089764613 41.897899531122476 H 0.0 **** 0.41
7857 H 6.695127789337017 24.420523030534405 42.70243771273406 H 0.0 **** 0.41
7858 O 27.91840638510665 14.297301158771901 17.66491231120179 O 0.0 **** -0.82
7859 H 27.1632391772668 13.695718533870181 17.855196196761803 H 0.0 **** 0.41
7860 H 27.52433807047473 15.174113080521208 17.352985751554918 H 0.0 **** 0.41
7861 O 36.64599444723575 41.31905819618145 28.929992518686255 O 0.0 **** -0.82
7862 H 36.16367839788134 41.43376463391029 29.83823878100564 H 0.0 **** 0.41
7863 H 36.54228783254713 40.35640107661555 28.672601188419073 H 0.0 **** 0.41
7864 O 19.95798477967128 8.454230449730405 18.113825019234763 O 0.0 **** -0.82
7865 H 19.4139355381309 9.30997381168494 18.168587998062126 H 0.0 **** 0.41
7866 H 20.864384301159646 8.72460226553703 17.756252938037164 H 0.0 **** 0.41
7867 O 28.35100914006745 9.464315423212646 16.652007977893874 O 0.0 **** -0.82
7868 H 27.809117455418455 10.250436701800048 16.887756548217723 H 0.0 **** 0.41
7869 H 27.96505709606056 8.947843419836111 15.847273299729565 H 0.0 **** 0.41
7870 O 3.801418817984228 26.126568841321404 29.334321908078493 O 0.0 **** -0.82
7871 H 3.3619508927994133 26.971537858214827 29.53255644970899 H 0.0 **** 0.41
7872 H 3.5042522455649703 25.532784586991745 30.13634970641398 H 0.0 **** 0.41
7873 O 19.28086742602649 4.899222739976032 40.81309276355157 O 0.0 **** -0.82
7874 H 18.817499244306163 4.547750736932578 39.97142867739965 H 0.0 **** 0.41
7875 H 20.25297648379191 4.516185612730943 40.83506534430914 H 0.0 **** 0.41
7876 O 15.444049481738276 15.199061831503474 12.700033021820948 O 0.0 **** -0.82
7877 H 16.076158003917893 14.760913628450085 11.974506369063937 H 0.0 **** 0.41
7878 H 15.688048664043942 14.818855178613104 13.668116451191691 H 0.0 **** 0.41
7879 O 47.91725533065087 27.282251799177633 27.17815048413192 O 0.0 **** -0.82
7880 H 47.24519524196174 26.546543675208483 26.935614618485644 H 0.0 **** 0.41
7881 H 47.45775857389367 28.17824059794737 27.05987242616763 H 0.0 **** 0.41
7882 O 32.44978202976451 40.85832710336947 18.42873079774579 O 0.0 **** -0.82
7883 H 32.36281473437542 40.92903844133874 17.42145834949522 H 0.0 **** 0.41
7884 H 33.31340679439454 41.37671092628033 18.683098666970555 H 0.0 **** 0.41
7885 O 11.093782556361417 24.539332667097213 1.7773946974908061 O 0.0 **** -0.82
7886 H 11.100309404601713 24.2723061276058 2.765378025610124 H 0.0 **** 0.41
7887 H 10.761253308741182 23.730871436061552 1.2549687028288643 H 0.0 **** 0.41
7888 O 7.923463916237814 44.47502648279527 45.552516459300215 O 0.0 **** -0.82
7889 H 8.117737288955354 43.48827885753028 45.40344007646492 H 0.0 **** 0.41
7890 H 7.509465858474449 44.58596277181686 46.45842798029713 H 0.0 **** 0.41
7891 O 45.19480129500599 0.8415062780779365 37.34874373530359 O 0.0 **** -0.82
7892 H 44.24371806257752 0.9937336503793759 36.95924453755734 H 0.0 **** 0.41
7893 H 45.56154456169779 1.7824166248764612 37.59565374654974 H 0.0 **** 0.41
7894 O 9.842324250266813 45.199420414588445 40.80173908875553 O 0.0 **** -0.82
7895 H 10.43725250674311 45.312601094873706 40.05044816025875 H 0.0 **** 0.41
7896 H 9.866162822975523 46.00561615140218 41.41160548369455 H 0.0 **** 0.41
7897 O 41.88996907670156 23.3861738331309 25.694438783643633 O 0.0 **** -0.82
7898 H 42.665605816336935 24.012531960109712 25.8302228167742 H 0.0 **** 0.41
7899 H 41.32127918405285 23.634119766045185 26.426086520512463 H 0.0 **** 0.41
7900 O 29.037715060167585 20.778556686504 32.69169562597633 O 0.0 **** -0.82
7901 H 29.896557600155887 20.941870489399484 32.21572087491041 H 0.0 **** 0.41
7902 H 28.5101294089514 21.57682457129787 32.828126701266434 H 0.0 **** 0.41
7903 O 37.16170163023867 47.92247521429856 3.699389879307519 O 0.0 **** -0.82
7904 H 37.14429369946557 48.316004984111174 2.783035576757927 H 0.0 **** 0.41
7905 H 37.60138096962804 48.688573454713264 4.214129864091615 H 0.0 **** 0.41
7906 O 42.192978638842256 16.94084075789036 28.96984308557216 O 0.0 **** -0.82
7907 H 43.109017816455875 17.053987959158544 29.36641501264082 H 0.0 **** 0.41
7908 H 42.16864486426837 17.485282466247607 28.163759574477726 H 0.0 **** 0.41
7909 O 0.397185023111021 26.958353872263956 18.7268892781341 O 0.0 **** -0.82
7910 H 0.9619344983987901 26.090262667045664 18.610005487163452 H 0.0 **** 0.41
7911 H 0.24546913525936986 26.96036791435239 19.71721148165737 H 0.0 **** 0.41
7912 O 3.4603949840818955 35.60949857513745 13.045101873839343 O 0.0 **** -0.82
7913 H 4.132119811361133 35.79926052747888 12.337389923894284 H 0.0 **** 0.41
7914 H 3.9869209773542327 35.38725355388627 13.920553017650715 H 0.0 **** 0.41
7915 O 17.59267691569027 21.38467069145412 19.20832810440336 O 0.0 **** -0.82
7916 H 17.460733165688183 21.36861910338645 18.21091771652533 H 0.0 **** 0.41
7917 H 18.084307714624916 20.58594796891687 19.572393689753877 H 0.0 **** 0.41
7918 O 21.636333028206558 44.48508157603484 15.19148792336047 O 0.0 **** -0.82
7919 H 21.09732602193604 44.19498434168075 14.45319637425655 H 0.0 **** 0.41
7920 H 22.330303119434625 43.81235132712651 15.540899653484303 H 0.0 **** 0.41
7921 O 26.692440083652258 0.7379630958592018 48.57800781500475 O 0.0 **** -0.82
7922 H 27.01126396754899 -0.09506213886303527 48.07593693897332 H 0.0 **** 0.41
7923 H 25.740147020976394 0.4472490913944347 48.88264499205846 H 0.0 **** 0.41
7924 O 44.45314910341836 32.62212962618998 2.2830937472390036 O 0.0 **** -0.82
7925 H 43.700630912192274 31.97253393042237 2.613121739536547 H 0.0 **** 0.41
7926 H 44.67595413197725 33.14496631310925 3.0814785952916073 H 0.0 **** 0.41
7927 O 15.888869918048735 20.868594966838554 40.35335309408538 O 0.0 **** -0.82
7928 H 15.673274772111816 20.95495372210053 39.3570427173339 H 0.0 **** 0.41
7929 H 16.80688950936192 21.224610496578258 40.47857171296298 H 0.0 **** 0.41
7930 O 25.504118592396928 4.607252094495919 24.131722740463005 O 0.0 **** -0.82
7931 H 26.228037894782922 4.774124281537908 23.4782758969659 H 0.0 **** 0.41
7932 H 25.59077428393115 3.701065756811971 24.527964681771987 H 0.0 **** 0.41
7933 O 15.573946930550674 1.6165103862732282 6.209053405980278 O 0.0 **** -0.82
7934 H 16.163575219301425 1.4528355791844851 6.9999902603171265 H 0.0 **** 0.41
7935 H 15.641103985592661 0.672919858630268 5.736709752497788 H 0.0 **** 0.41
7936 O 3.898286034228022 10.876373272690117 47.970820872095 O 0.0 **** -0.82
7937 H 3.359239916956568 11.735473607341348 47.93386999977645 H 0.0 **** 0.41
7938 H 3.3768664210300017 10.171551181668107 48.52302461184924 H 0.0 **** 0.41
7939 O 11.599883619237481 26.143271899496323 40.42311763165148 O 0.0 **** -0.82
7940 H 11.417091232172567 26.038212251153706 41.442715991498495 H 0.0 **** 0.41
7941 H 11.886078770954917 25.224150111628727 40.11630057348254 H 0.0 **** 0.41
7942 O 36.96129894796213 12.1101891288614 25.090742185444178 O 0.0 **** -0.82
7943 H 36.2196341424562 12.127514239621433 24.367838128337223 H 0.0 **** 0.41
7944 H 37.16263582734522 11.109720288106246 25.262382033260838 H 0.0 **** 0.41
7945 O 6.429356351169639 12.090655293947428 14.48871533073067 O 0.0 **** -0.82
7946 H 6.717638061173662 12.317722817329965 13.545910201158094 H 0.0 **** 0.41
7947 H 6.672891977736247 12.889316839604923 15.03405383252111 H 0.0 **** 0.41
7948 O 25.417305801112338 19.754330006072585 25.151051802522307 O 0.0 **** -0.82
7949 H 24.473891376945364 19.37150174938293 25.002679802745057 H 0.0 **** 0.41
7950 H 26.024275607313992 19.208027925807816 25.71324670835149 H 0.0 **** 0.41
7951 O 43.67320826223997 31.78857985514044 30.0412934442628 O 0.0 **** -0.82
7952 H 42.77794793232145 31.97842634685101 30.43512348108291 H 0.0 **** 0.41
7953 H 44.07777501699376 30.99507630156929 30.472349688193795 H 0.0 **** 0.41
7954 O 18.374307255385318 31.933606478486507 30.490380868379322 O 0.0 **** -0.82
7955 H 17.47893943034815 31.888068084228284 30.133905515228598 H 0.0 **** 0.41
7956 H 18.714183472568852 32.62274485732559 29.822037217828598 H 0.0 **** 0.41
7957 O 45.72328787206977 29.55243796736582 46.62582433965024 O 0.0 **** -0.82
7958 H 44.92934744856439 29.05178976037725 46.92212172161576 H 0.0 **** 0.41
7959 H 46.08639815096626 29.354934465592216 45.65308840149163 H 0.0 **** 0.41
7960 O 26.211954599040443 43.48803411055121 16.174373296089726 O 0.0 **** -0.82
7961 H 26.969667450707888 42.98766546368676 16.69033291020203 H 0.0 **** 0.41
7962 H 25.76768002500889 44.13765956245987 16.86642694208723 H 0.0 **** 0.41
7963 O 29.720637553867007 32.2434065571866 2.6266420552380225 O 0.0 **** -0.82
7964 H 30.531021146538514 32.54441723285068 2.0705171187763867 H 0.0 **** 0.41
7965 H 29.724976206311542 31.229481688633896 2.559986076630125 H 0.0 **** 0.41
7966 O 14.532134692195672 24.814108412759055 35.67599626928356 O 0.0 **** -0.82
7967 H 13.616165945402727 25.113529368300995 35.90873591846583 H 0.0 **** 0.41
7968 H 14.85631595798287 25.43815107597931 34.95513323491849 H 0.0 **** 0.41
7969 O 49.268342256372435 49.395260054010784 48.432582583389156 O 0.0 **** -0.82
7970 H 49.96581370668123 48.737519499707496 48.06873077696102 H 0.0 **** 0.41
7971 H 49.081814239805134 49.142836893129434 49.4019947006818 H 0.0 **** 0.41
7972 O 40.172134515086135 3.8890909205495845 27.58265461406075 O 0.0 **** -0.82
7973 H 39.588125869915196 4.018710865770586 28.42087252831598 H 0.0 **** 0.41
7974 H 40.70768214415707 3.0570501226112867 27.731325489532363 H 0.0 **** 0.41
7975 O 46.97142937485621 15.908626595459415 39.385898841860474 O 0.0 **** -0.82
7976 H 47.303315155845524 16.887539313003135 39.46809150768676 H 0.0 **** 0.41
7977 H 47.675333957284074 15.474680407187256 38.779637757628464 H 0.0 **** 0.41
7978 O 0.2640561888108828 47.756563937656075 3.442597937386239 O 0.0 **** -0.82
7979 H 1.2188860159520065 47.5955401722406 3.7468686006080816 H 0.0 **** 0.41
7980 H -0.15039032115445394 48.39012680757764 4.110919606695305 H 0.0 **** 0.41
7981 O 9.398929709615706 42.03007492827037 21.699158212752582 O 0.0 **** -0.82
7982 H 8.578948484371665 41.75585559091434 22.30769036917835 H 0.0 **** 0.41
7983 H 9.96229197227209 42.59865241122646 22.35388415844654 H 0.0 **** 0.41
7984 O 13.298343926953887 24.188355266796272 5.427127237814965 O 0.0 **** -0.82
7985 H 13.268037529513771 23.359656639729696 6.098149355833549 H 0.0 **** 0.41
7986 H 12.388062061764458 24.200476603198705 4.978174959514639 H 0.0 **** 0.41
7987 O 2.9048021211583213 27.39241826647721 34.16691278118785 O 0.0 **** -0.82
7988 H 3.4516167678071823 26.549055464745226 34.20152167246391 H 0.0 **** 0.41
7989 H 3.4234489692451433 28.001646466509584 34.766156961242125 H 0.0 **** 0.41
7990 O 44.878483764089395 15.293814547698457 20.879731464394354 O 0.0 **** -0.82
7991 H 44.901168622967305 14.871162968440267 19.97233885048804 H 0.0 **** 0.41
7992 H 45.146916644122854 14.566940280978542 21.49038410192566 H 0.0 **** 0.41
7993 O 6.948818584459271 30.73163836700438 28.823035631433562 O 0.0 **** -0.82
7994 H 6.110896365153706 30.56064244513341 29.381309400642433 H 0.0 **** 0.41
7995 H 7.713091940843028 30.184570487415954 29.24525012295871 H 0.0 **** 0.41
7996 O 44.71759410579638 27.840580987261365 22.98510455377956 O 0.0 **** -0.82
7997 H 44.310427305105485 27.208180693454597 22.299005826203626 H 0.0 **** 0.41
7998 H 44.10442134726471 27.849055200956315 23.811181671861682 H 0.0 **** 0.41
7999 O 46.90210815697384 0.1774024529457563 7.170560414619956 O 0.0 **** -0.82
8000 H 47.55752366522074 -0.343106896578945 7.766584784436169 H 0.0 **** 0.41
8001 H 46.01328423169347 -0.2843092389293176 7.319065098596866 H 0.0 **** 0.41
8002 O 36.488050249699846 31.835700962668795 27.034592532145204 O 0.0 **** -0.82
8003 H 36.50446442799755 31.38939917732 27.924937248717843 H 0.0 **** 0.41
8004 H 37.14800683316536 32.71289846950296 27.026743925459915 H 0.0 **** 0.41
8005 O 15.039580520543494 20.998333374940394 19.999962799950097 O 0.0 **** -0.82
8006 H 16.05955907198845 21.08466544994427 20.01342767168263 H 0.0 **** 0.41
8007 H 14.853049429674078 20.84301111836111 19.029747450262725 H 0.0 **** 0.41
8008 O 18.727189311691784 36.72946302513978 21.38865599087125 O 0.0 **** -0.82
8009 H 18.020217766441615 35.96367894153621 21.19768907802674 H 0.0 **** 0.41
8010 H 18.187053514848866 37.47657632657298 21.723363802965853 H 0.0 **** 0.41
8011 O 5.3368408757512 29.188587419996153 5.534059617946227 O 0.0 **** -0.82
8012 H 4.819918280654406 29.790548094469354 4.90146088613929 H 0.0 **** 0.41
8013 H 6.298818626910478 29.087576593885117 5.150306888892999 H 0.0 **** 0.41
8014 O 14.595352726942743 48.20875022715329 46.9756753316689 O 0.0 **** -0.82
8015 H 15.175817410852078 48.96921853369476 46.600730659894644 H 0.0 **** 0.41
8016 H 13.967994856255958 47.90124634018887 46.21497165642085 H 0.0 **** 0.41
8017 O 6.70613255227849 28.362716602324866 26.614453740930117 O 0.0 **** -0.82
8018 H 7.616318731967205 27.87749912751717 26.695657531999966 H 0.0 **** 0.41
8019 H 6.867473531527359 29.212780972447035 27.084640166258936 H 0.0 **** 0.41
8020 O 0.5519743015763225 12.808045180776048 4.04023864595243 O 0.0 **** -0.82
8021 H 1.1383158083983744 12.555992492681007 4.825183253662256 H 0.0 **** 0.41
8022 H 1.048650976740582 12.845226791129981 3.171941518013338 H 0.0 **** 0.41
8023 O 14.472015055358945 8.25430665510978 22.886226674049368 O 0.0 **** -0.82
8024 H 15.445173746913683 8.494893811402662 22.788414891178846 H 0.0 **** 0.41
8025 H 14.261603604386368 7.718507986234869 21.986666812455923 H 0.0 **** 0.41
8026 O 46.258932859179 43.324897504807325 29.403113589234593 O 0.0 **** -0.82
8027 H 45.64324016167091 42.73191885481448 29.93297255539337 H 0.0 **** 0.41
8028 H 47.20505236091072 43.1491013680834 29.79022075278105 H 0.0 **** 0.41
8029 O 0.05476815093385312 42.34449072461538 12.72432773344245 O 0.0 **** -0.82
8030 H 0.6975906337341229 42.166236834146176 13.477990020405134 H 0.0 **** 0.41
8031 H 0.2721351874842668 43.311253969961626 12.487600462237971 H 0.0 **** 0.41
8032 O 4.190435757266897 34.79675359261385 19.596746841275134 O 0.0 **** -0.82
8033 H 3.572471536285221 34.52130697523471 18.838761241124537 H 0.0 **** 0.41
8034 H 3.7111737740663955 35.64177616995191 19.95041850993297 H 0.0 **** 0.41
8035 O 17.335820038299012 8.024769902421282 27.980895442329437 O 0.0 **** -0.82
8036 H 17.561173546872162 8.790278791302534 27.343190693547665 H 0.0 **** 0.41
8037 H 16.400353435541753 8.310816278526207 28.22601414340306 H 0.0 **** 0.41
8038 O 38.87123850756872 45.8921531954958 18.848260289260566 O 0.0 **** -0.82
8039 H 39.66485855298214 46.096218211270006 19.443263031167685 H 0.0 **** 0.41
8040 H 39.052875417118656 46.491696708722195 18.06209933065227 H 0.0 **** 0.41
8041 O 20.934345255338 4.642128577230761 35.052124769707156 O 0.0 **** -0.82
8042 H 21.40872602307626 4.471761780459286 35.919596549259715 H 0.0 **** 0.41
8043 H 21.0682833600341 3.8566656964480033 34.404474252893245 H 0.0 **** 0.41
8044 O 3.83444005828364 14.602206267585718 40.381175184521275 O 0.0 **** -0.82
8045 H 4.821920857405431 14.595087253247534 40.648636869638715 H 0.0 **** 0.41
8046 H 3.799629857279527 15.625854664984743 40.361409223714595 H 0.0 **** 0.41
8047 O 4.2424957775513334 9.890037648295937 36.45683721137314 O 0.0 **** -0.82
8048 H 3.77639715059815 9.144664875857707 36.96866475129007 H 0.0 **** 0.41
8049 H 4.955976669560599 9.602571261283195 35.8887563363827 H 0.0 **** 0.41
8050 O 7.483794720550093 19.421223250784593 19.67895169560668 O 0.0 **** -0.82
8051 H 7.589585097727603 19.216186763516134 18.687274258712613 H 0.0 **** 0.41
8052 H 6.743804104972354 18.819795272603372 20.028014061872852 H 0.0 **** 0.41
8053 O 22.302240472991887 49.63504753453517 21.8203256789729 O 0.0 **** -0.82
8054 H 21.631487235711532 49.04488227124666 22.288133250712832 H 0.0 **** 0.41
8055 H 22.24456947557299 50.548505162956566 22.181644047794055 H 0.0 **** 0.41
8056 O 38.32069020185948 4.0243398844483025 35.81723371923742 O 0.0 **** -0.82
8057 H 38.8315882211892 3.5257377335302778 35.124311721540465 H 0.0 **** 0.41
8058 H 37.33522447244194 4.114141364546853 35.54440102331587 H 0.0 **** 0.41
8059 O 38.25463468578155 30.954159759089475 44.644399207054576 O 0.0 **** -0.82
8060 H 38.869622832809924 31.78496938638588 44.62152230597367 H 0.0 **** 0.41
8061 H 37.49224542898991 31.29269838355532 44.130715533921226 H 0.0 **** 0.41
8062 O 45.20046250846177 36.869633762527855 39.94740670104988 O 0.0 **** -0.82
8063 H 46.11351229031198 37.38412695206578 39.9465352709999 H 0.0 **** 0.41
8064 H 44.85235554283869 36.794546228806404 39.0007065403179 H 0.0 **** 0.41
8065 O 33.226764706230576 9.332205599293808 15.444932076640868 O 0.0 **** -0.82
8066 H 32.57413465516361 10.074044729343292 15.583265546966047 H 0.0 **** 0.41
8067 H 32.66866802603827 8.580956273657819 15.806224259677947 H 0.0 **** 0.41
8068 O 40.230490382165186 37.87041777705054 11.24120319061523 O 0.0 **** -0.82
8069 H 40.243207133747006 36.88354946673031 11.526472365108319 H 0.0 **** 0.41
8070 H 41.16711652378986 38.27176802518107 11.313849610828719 H 0.0 **** 0.41
8071 O 3.4231630099737487 16.649639908202722 9.438754720962116 O 0.0 **** -0.82
8072 H 4.38810636319873 16.73216145839916 9.590165412019424 H 0.0 **** 0.41
8073 H 3.272621358887065 16.62825892786352 8.432731298272678 H 0.0 **** 0.41
8074 O 47.36820870257631 35.2471090629334 11.261939717853265 O 0.0 **** -0.82
8075 H 46.419669861231554 35.73767220520229 11.219658101080066 H 0.0 **** 0.41
8076 H 48.10536275336879 35.77612475485018 10.726668837269887 H 0.0 **** 0.41
8077 O 2.843122695292003 19.06208308634526 47.845793510833815 O 0.0 **** -0.82
8078 H 3.06928685662173 19.31623673418797 48.78867562102061 H 0.0 **** 0.41
8079 H 3.407574009142728 18.246287131791078 47.54609363248488 H 0.0 **** 0.41
8080 O 46.837174580538786 20.814170078334822 6.58571879418308 O 0.0 **** -0.82
8081 H 46.58597342104311 21.794815690081556 6.413549212536132 H 0.0 **** 0.41
8082 H 47.39529820030404 20.756051431111928 7.492005229231367 H 0.0 **** 0.41
8083 O 25.98818616397475 35.19180245046598 4.298090030282844 O 0.0 **** -0.82
8084 H 25.821021589394846 35.06439143207401 5.275326293078382 H 0.0 **** 0.41
8085 H 26.993067642604803 35.011389164753375 4.270938894739617 H 0.0 **** 0.41
8086 O 43.780227159588804 8.65096386551629 19.06598309638574 O 0.0 **** -0.82
8087 H 43.61031358481041 9.344292714211159 18.32285408043176 H 0.0 **** 0.41
8088 H 42.92791656932232 8.153738556546909 19.011558567521117 H 0.0 **** 0.41
8089 O 47.60562366678088 41.96818503547339 46.59031521113171 O 0.0 **** -0.82
8090 H 48.57147572810466 42.127620849820936 46.24102122964758 H 0.0 **** 0.41
8091 H 47.17049286150021 41.4120680534796 45.87702296976445 H 0.0 **** 0.41
8092 O 37.2581581284041 40.730350182348204 9.673923198930083 O 0.0 **** -0.82
8093 H 36.39652897077227 40.3199203716141 9.400986835238523 H 0.0 **** 0.41
8094 H 37.44470205817633 41.577128009938306 9.08149947139751 H 0.0 **** 0.41
8095 O 30.747171342448823 12.194300547389433 30.523669075365202 O 0.0 **** -0.82
8096 H 29.779969078609668 12.541616112403903 30.460371522636347 H 0.0 **** 0.41
8097 H 30.673047382489273 11.413813395818945 31.186614992835644 H 0.0 **** 0.41
8098 O 2.7531918822752246 7.5040093673258195 29.993023601700628 O 0.0 **** -0.82
8099 H 1.7974248060000093 7.550168013483856 30.366186555971282 H 0.0 **** 0.41
8100 H 3.017254897375672 8.461120588745757 29.869662146814264 H 0.0 **** 0.41
8101 O 17.314179678424956 21.058514456351944 33.383329150517696 O 0.0 **** -0.82
8102 H 16.74537426339026 21.908499733161563 33.43231975938001 H 0.0 **** 0.41
8103 H 17.157092064600675 20.66771788850872 32.460295260411534 H 0.0 **** 0.41
8104 O 24.565956605140943 1.6212919173146787 19.832624834124232 O 0.0 **** -0.82
8105 H 24.9095304533364 0.727937005337111 19.499290344785585 H 0.0 **** 0.41
8106 H 23.820499053131297 1.7578677909099767 19.184707044996824 H 0.0 **** 0.41
8107 O 13.3472116574738 24.219987701114377 20.43431095896642 O 0.0 **** -0.82
8108 H 13.757583980535582 24.219869931981762 19.50537931988216 H 0.0 **** 0.41
8109 H 14.17675026187266 24.15172814645109 21.018957310298244 H 0.0 **** 0.41
8110 O 14.105596452934961 3.11761352379135 44.85535412445493 O 0.0 **** -0.82
8111 H 13.333453964076565 3.1981897389733818 44.29564351208812 H 0.0 **** 0.41
8112 H 14.819239720261582 2.859678383151299 44.20963634774455 H 0.0 **** 0.41
8113 O 32.37268641446008 46.05699348552966 31.115385819776762 O 0.0 **** -0.82
8114 H 32.569988452666614 46.2320753854582 32.11279260200702 H 0.0 **** 0.41
8115 H 32.729942640830366 46.85767375960704 30.605574925705596 H 0.0 **** 0.41
8116 O 45.51092508678026 27.33405643747078 29.841591378293824 O 0.0 **** -0.82
8117 H 45.41901481638369 28.160009791867726 29.295974301604623 H 0.0 **** 0.41
8118 H 44.88342874503656 27.35881127299191 30.598003151511744 H 0.0 **** 0.41
8119 O 45.10261950903282 22.668070840314126 48.345364765715885 O 0.0 **** -0.82
8120 H 44.47927215311467 23.2388664584591 48.93202439482414 H 0.0 **** 0.41
8121 H 45.45071075411742 21.81567607779807 48.82002471101549 H 0.0 **** 0.41
8122 O 10.385157006564551 43.01365408326931 6.241386360005606 O 0.0 **** -0.82
8123 H 10.04503572077747 42.67402311678373 5.355084291588508 H 0.0 **** 0.41
8124 H 10.703136009011493 42.212419833998084 6.772092087590405 H 0.0 **** 0.41
8125 O 17.379619512223332 34.83053305191888 39.40645862661776 O 0.0 **** -0.82
8126 H 17.13222328867123 33.9826926288022 39.849774257155325 H 0.0 **** 0.41
8127 H 16.60540045131012 35.495902779359824 39.38763922169123 H 0.0 **** 0.41
8128 O 48.855133382269074 21.581750253539195 38.041226333032284 O 0.0 **** -0.82
8129 H 48.45647800432195 20.641902807919266 38.200806342985715 H 0.0 **** 0.41
8130 H 48.53108081885176 21.772751920784586 37.09164436171639 H 0.0 **** 0.41
8131 O 19.16250570914949 36.12738804764725 31.557560325210936 O 0.0 **** -0.82
8132 H 19.372073034202593 37.08317010537315 31.929688822514166 H 0.0 **** 0.41
8133 H 19.751345473214986 35.5967856438544 32.222232749875104 H 0.0 **** 0.41
8134 O 40.08466151052782 18.588630303534433 37.16737094543104 O 0.0 **** -0.82
8135 H 40.815283096714175 18.087297252702566 37.65358085549907 H 0.0 **** 0.41
8136 H 39.639605046378534 17.80666027924437 36.659583923778776 H 0.0 **** 0.41
8137 O 29.941126837721864 18.371511336635862 6.809163643788175 O 0.0 **** -0.82
8138 H 30.045910776534754 17.365180894114502 6.7827435012953 H 0.0 **** 0.41
8139 H 30.831073050407287 18.76606620821606 6.49040595061998 H 0.0 **** 0.41
8140 O 3.6034634086864514 20.8228906418399 12.614354196951012 O 0.0 **** -0.82
8141 H 3.410684209304229 19.92114470030755 12.23554380449714 H 0.0 **** 0.41
8142 H 4.056580644372971 21.253503993709163 11.831176466540475 H 0.0 **** 0.41
8143 O 16.719034123501498 21.799120384743876 0.3353109881246876 O 0.0 **** -0.82
8144 H 16.61989516117936 22.534230709359644 1.0154803620945128 H 0.0 **** 0.41
8145 H 17.607597872650537 22.006301302536386 -0.22035647230322297 H 0.0 **** 0.41
8146 O 24.436413081730585 1.665948664187276 6.604203968201659 O 0.0 **** -0.82
8147 H 24.903509921487938 0.9920582689342226 6.024374610752467 H 0.0 **** 0.41
8148 H 23.46337181000994 1.6742473818904813 6.269324582900246 H 0.0 **** 0.41
8149 O 25.134132287560504 46.54205267465788 23.04708278359138 O 0.0 **** -0.82
8150 H 25.785491183163828 47.342240474305186 23.053032402255123 H 0.0 **** 0.41
8151 H 24.970190662330367 46.3473250298743 24.040847237468586 H 0.0 **** 0.41
8152 O 42.586463765285885 27.81365637628124 5.834633609384766 O 0.0 **** -0.82
8153 H 43.39955408128492 28.293046173171785 5.37381459340794 H 0.0 **** 0.41
8154 H 41.796860404729664 27.80924042186263 5.102281417307738 H 0.0 **** 0.41
8155 O 29.69774865698025 18.797745375879764 34.318146949384115 O 0.0 **** -0.82
8156 H 28.83658009934 18.558330727427077 34.81289162072456 H 0.0 **** 0.41
8157 H 29.377547815568327 19.632929472034572 33.76482378411272 H 0.0 **** 0.41
8158 O 30.34376577094031 34.5810763520425 9.167955455934525 O 0.0 **** -0.82
8159 H 30.229311236847888 34.83050865726417 10.18310573853121 H 0.0 **** 0.41
8160 H 30.23815335494202 35.51086786888002 8.847339647620728 H 0.0 **** 0.41
8161 O 10.986217966746644 15.813111804294856 46.102816312988544 O 0.0 **** -0.82
8162 H 11.700657519343537 16.123358546688735 45.48145128993357 H 0.0 **** 0.41
8163 H 10.36651883234204 16.575527909474687 46.390187974370384 H 0.0 **** 0.41
8164 O 32.16037153362311 27.98620415965465 46.610790883623956 O 0.0 **** -0.82
8165 H 32.47793373077822 28.82152317017599 47.179572475368325 H 0.0 **** 0.41
8166 H 31.449015761241245 28.41975282023527 46.096424649613404 H 0.0 **** 0.41
8167 O 18.441876108417787 49.47507999923998 45.14339884271746 O 0.0 **** -0.82
8168 H 17.50456560402121 49.627560962838366 45.599858303964 H 0.0 **** 0.41
8169 H 19.052052844621215 49.244829950937984 45.910926134131 H 0.0 **** 0.41
8170 O 11.160977358583693 32.0179316515272 15.415535872301291 O 0.0 **** -0.82
8171 H 10.7788620519175 31.467144122548532 16.187919753517434 H 0.0 **** 0.41
8172 H 12.169556634985504 31.831345558554016 15.486724339322762 H 0.0 **** 0.41
8173 O 43.81197549661061 25.431264740371763 7.200902030034236 O 0.0 **** -0.82
8174 H 43.06821044678611 24.724101397480137 7.2349427425637955 H 0.0 **** 0.41
8175 H 43.4550886408213 26.17897150032648 6.647060752027571 H 0.0 **** 0.41
8176 O 15.759203902701916 26.894112505708165 15.370009726906133 O 0.0 **** -0.82
8177 H 16.585662598201694 27.33786243563488 15.595608387337307 H 0.0 **** 0.41
8178 H 15.234298247746157 27.557978541448964 14.9052352922387 H 0.0 **** 0.41
8179 O 35.89409628207386 23.372950751620436 20.454154641070577 O 0.0 **** -0.82
8180 H 35.15902472953322 24.07103778786808 20.52951115593922 H 0.0 **** 0.41
8181 H 36.83101223723106 23.62800405152265 20.714033386082416 H 0.0 **** 0.41
8182 O 36.873845714580305 42.5931897440929 2.704635359994043 O 0.0 **** -0.82
8183 H 36.54087255980818 43.504049204944714 2.8002790323178033 H 0.0 **** 0.41
8184 H 36.328519449212095 42.26731482567256 1.8491349300197442 H 0.0 **** 0.41
8185 O 36.44003999151829 13.237680469658736 38.95135964942627 O 0.0 **** -0.82
8186 H 36.22409785915823 13.547279728577719 38.012561213427965 H 0.0 **** 0.41
8187 H 37.46114320820366 13.469344978317961 39.155154876559784 H 0.0 **** 0.41
8188 O 7.483476979130117 41.35332003730569 23.58950145585944 O 0.0 **** -0.82
8189 H 7.607775985627853 42.191837290588076 24.14017502479516 H 0.0 **** 0.41
8190 H 6.485651265513894 41.304450044608345 23.420955628775207 H 0.0 **** 0.41
8191 O 31.96431950809786 20.06924904427801 28.0275030855524 O 0.0 **** -0.82
8192 H 32.51583001303524 19.731681806440232 28.803450809943495 H 0.0 **** 0.41
8193 H 31.626993940996048 19.285979558984454 27.471892395383772 H 0.0 **** 0.41
8194 O 36.353488527975344 6.052142379758663 3.3470611970464645 O 0.0 **** -0.82
8195 H 35.85355572709062 5.378198484229383 3.941332590076712 H 0.0 **** 0.41
8196 H 36.99189246637041 6.596572476756329 3.960455998768367 H 0.0 **** 0.41
8197 O 42.6584085170343 24.305610280073353 21.954557820733427 O 0.0 **** -0.82
8198 H 41.95943666303597 23.79122530906541 21.379026301914756 H 0.0 **** 0.41
8199 H 42.524316972274164 24.197254973460588 22.911829655875618 H 0.0 **** 0.41
8200 O 12.44575955183501 31.571451323759295 46.1430499427134 O 0.0 **** -0.82
8201 H 13.298995858746338 31.11036064759263 46.29617235151135 H 0.0 **** 0.41
8202 H 11.985526108412849 31.41619733972224 47.02983649614643 H 0.0 **** 0.41
8203 O 20.48155260542662 45.81325542266166 37.2266672183735 O 0.0 **** -0.82
8204 H 21.0374649924642 46.36550866714606 36.60514561003631 H 0.0 **** 0.41
8205 H 20.08076592618799 46.4075470877642 37.951206776263234 H 0.0 **** 0.41
8206 O 8.125160405865033 39.98342871069109 10.554450793296558 O 0.0 **** -0.82
8207 H 8.599027027089974 39.64991739388507 9.712143306868478 H 0.0 **** 0.41
8208 H 8.222358288964232 40.97427243857124 10.388276310809243 H 0.0 **** 0.41
8209 O 18.307633635584722 46.154448568469945 6.562122960664027 O 0.0 **** -0.82
8210 H 17.788118544573692 46.96516498478838 6.817645916735316 H 0.0 **** 0.41
8211 H 18.49205545158125 46.33139975980449 5.6010095693406825 H 0.0 **** 0.41
8212 O 26.670572424225348 12.058076428273012 44.27700865839225 O 0.0 **** -0.82
8213 H 27.046021328958314 11.13235799173136 44.040339332838506 H 0.0 **** 0.41
8214 H 26.110793952001764 12.437538288149774 43.49338564693693 H 0.0 **** 0.41
8215 O 19.671591633413538 36.60594428682296 9.251715072501039 O 0.0 **** -0.82
8216 H 20.06120074596862 35.707053349948694 9.466484638645008 H 0.0 **** 0.41
8217 H 19.27549802146676 36.8784442004428 10.094626736923223 H 0.0 **** 0.41
8218 O 38.27221000483901 10.368978183030048 27.949223119960294 O 0.0 **** -0.82
8219 H 39.06071092298675 11.022338289285212 28.033921481863075 H 0.0 **** 0.41
8220 H 37.453824253157286 10.924072691282037 28.08191723410131 H 0.0 **** 0.41
8221 O 10.668541782409498 0.16247296910309877 7.730978415819557 O 0.0 **** -0.82
8222 H 10.793866416900057 -0.8140186354858159 7.584306704490421 H 0.0 **** 0.41
8223 H 10.307511561073186 0.41011779079590027 6.850423835280907 H 0.0 **** 0.41
8224 O 29.101049011259818 33.6252659992744 46.62250429138793 O 0.0 **** -0.82
8225 H 28.87566783715974 32.668165291864014 46.78935174453975 H 0.0 **** 0.41
8226 H 28.30148165856457 33.95573365985716 46.07639859700362 H 0.0 **** 0.41
8227 O 42.95377594395116 43.623905307654844 33.51753814028681 O 0.0 **** -0.82
8228 H 42.72390953883075 44.592770289596835 33.779717109233665 H 0.0 **** 0.41
8229 H 42.06690815356332 43.31609228026977 33.11978693611725 H 0.0 **** 0.41
8230 O 3.0136364848575354 44.53787658555848 46.994638542166825 O 0.0 **** -0.82
8231 H 2.957264333754779 44.36178190140396 46.01310159480915 H 0.0 **** 0.41
8232 H 3.1148029811723674 45.589152383966095 46.963567119197045 H 0.0 **** 0.41
8233 O 22.28293741335784 22.354021179943516 6.7897491300612645 O 0.0 **** -0.82
8234 H 22.601953589340965 23.16252115471329 7.3096881240592255 H 0.0 **** 0.41
8235 H 23.066060359635713 21.67812880378689 6.734672448788427 H 0.0 **** 0.41
8236 O 9.70033531913667 21.709539625679383 7.042755905819909 O 0.0 **** -0.82
8237 H 9.476222874711233 21.840816048467218 6.083682049389985 H 0.0 **** 0.41
8238 H 9.226847684429119 22.492252622058448 7.536780225690464 H 0.0 **** 0.41
8239 O 8.321356447547904 47.133797156460794 28.777456429746024 O 0.0 **** -0.82
8240 H 8.530522345702561 46.13781094250886 28.627445181922027 H 0.0 **** 0.41
8241 H 9.211634490073346 47.60629803834917 28.533837243872398 H 0.0 **** 0.41
8242 O 20.75571347275197 1.5834547852273124 9.033507305325386 O 0.0 **** -0.82
8243 H 20.370790803888923 0.7129957952707326 9.38494610162724 H 0.0 **** 0.41
8244 H 21.65374709460611 1.6469402440914997 9.427844041786388 H 0.0 **** 0.41
8245 O 6.360664341120929 22.232268291799016 22.270541786910808 O 0.0 **** -0.82
8246 H 5.770100139230021 21.443667412258975 21.993911849909523 H 0.0 **** 0.41
8247 H 5.8806125717209685 23.062551376606507 22.011958534177076 H 0.0 **** 0.41
8248 O 13.233306156772812 22.20560683282878 6.985835036072242 O 0.0 **** -0.82
8249 H 13.96309396235067 21.994269978035287 7.730602883093081 H 0.0 **** 0.41
8250 H 12.40368412174125 21.708033534227265 7.267266662650761 H 0.0 **** 0.41
8251 O 18.345673580224897 12.143924888472512 0.2721130136096548 O 0.0 **** -0.82
8252 H 18.06998120594851 11.75801829117949 -0.6400279232663877 H 0.0 **** 0.41
8253 H 18.805585464099305 13.028392509939614 -0.007158227460401179 H 0.0 **** 0.41
8254 O 48.69203520042014 38.900575495194886 41.09934194423761 O 0.0 **** -0.82
8255 H 49.23224305431869 38.01147714253939 41.28836356858922 H 0.0 **** 0.41
8256 H 48.861988919312445 39.078144672848495 40.12517376271909 H 0.0 **** 0.41
8257 O 32.433358896392896 6.718168560484207 29.053354517414927 O 0.0 **** -0.82
8258 H 32.309017169467346 7.533867782973267 28.505171293075556 H 0.0 **** 0.41
8259 H 31.777820500677215 6.8045250055083395 29.78682474695035 H 0.0 **** 0.41
8260 O 19.019012049628316 24.855474932871843 31.861405336177246 O 0.0 **** -0.82
8261 H 20.026746482990205 25.226303770012734 31.712391650749925 H 0.0 **** 0.41
8262 H 19.332126396361133 23.94444825788579 32.355869561576824 H 0.0 **** 0.41
8263 O 19.732389282230244 22.77558576198244 19.425805967708367 O 0.0 **** -0.82
8264 H 18.838083797765023 22.27852273455197 19.31661395862663 H 0.0 **** 0.41
8265 H 20.10420656359196 22.558759805814816 20.27632498890886 H 0.0 **** 0.41
8266 O 47.01575405182888 16.28786326945401 43.80755902347025 O 0.0 **** -0.82
8267 H 48.01311357058782 16.215591115484106 44.10205412855251 H 0.0 **** 0.41
8268 H 46.68488407660345 17.232528664979384 43.876274135105604 H 0.0 **** 0.41
8269 O 38.23116124276759 26.474028097394797 8.367079962659222 O 0.0 **** -0.82
8270 H 38.3408301941834 25.913861558261495 7.515864153125688 H 0.0 **** 0.41
8271 H 39.21237137531369 26.61916973064679 8.516490261029759 H 0.0 **** 0.41
8272 O 5.460495169928642 18.291778516451078 33.66218163196687 O 0.0 **** -0.82
8273 H 4.990742403690902 19.176139222095276 33.893182013939956 H 0.0 **** 0.41
8274 H 5.102099876515439 17.582500539285423 34.345506503104474 H 0.0 **** 0.41
8275 O 35.27917284541658 11.179618927015156 43.47929050429898 O 0.0 **** -0.82
8276 H 36.08961247687383 10.574113554208502 43.32460443871806 H 0.0 **** 0.41
8277 H 35.62814963921621 12.119588560458062 43.298580289017785 H 0.0 **** 0.41
8278 O 35.82574085010972 38.204594218557965 7.218106445865108 O 0.0 **** -0.82
8279 H 35.34605793038009 38.76947581858729 7.9169536852900855 H 0.0 **** 0.41
8280 H 36.05510612935262 37.32704242558544 7.6750038854988185 H 0.0 **** 0.41
8281 O 10.648607235633374 39.078709943835186 22.0031668928911 O 0.0 **** -0.82
8282 H 10.469722503324123 39.02857976826558 21.07144537874258 H 0.0 **** 0.41
8283 H 9.679437918290574 38.90998804943247 22.423951340836766 H 0.0 **** 0.41
8284 O 45.3730671392313 30.60733313958729 42.00290886217345 O 0.0 **** -0.82
8285 H 44.53599151893424 31.050526479034975 41.58337923764973 H 0.0 **** 0.41
8286 H 45.883571980402735 30.288709313746494 41.208806450103815 H 0.0 **** 0.41
8287 O 36.474729431906894 29.389396647033422 47.00009222329823 O 0.0 **** -0.82
8288 H 35.68425365437771 29.14606757443849 46.29532295356381 H 0.0 **** 0.41
8289 H 36.99824314867226 30.100617867119908 46.52275286333093 H 0.0 **** 0.41
8290 O 0.5131401341374655 30.473612138089194 19.498430047108215 O 0.0 **** -0.82
8291 H 0.029797269528565096 29.973639519097528 20.222017083468963 H 0.0 **** 0.41
8292 H -0.2895503624323368 30.79320103399625 19.00856367158346 H 0.0 **** 0.41
8293 O 49.75127298134134 13.727414508110636 42.54886218003816 O 0.0 **** -0.82
8294 H 48.82812434855446 13.653339352169283 42.128619753089914 H 0.0 **** 0.41
8295 H 50.355729967398815 13.667699575929994 41.71822047529642 H 0.0 **** 0.41
8296 O 0.753632745023225 5.1800530763917765 20.082692193590333 O 0.0 **** -0.82
8297 H 0.6010799619424532 5.585597239022282 19.142022804689958 H 0.0 **** 0.41
8298 H -0.17156939675427907 4.899419374665848 20.46121083176019 H 0.0 **** 0.41
8299 O 49.33435528330638 7.132790125241232 41.09955489817698 O 0.0 **** -0.82
8300 H 50.12339466429083 6.607768327208014 40.737651534095676 H 0.0 **** 0.41
8301 H 49.228679472925826 6.877009427972159 42.07994265729298 H 0.0 **** 0.41
8302 O 9.565080731339727 10.994880287169732 1.1041259656759834 O 0.0 **** -0.82
8303 H 9.918383913900456 10.590225943536725 1.9940236013078305 H 0.0 **** 0.41
8304 H 8.601596348210423 10.694130977250724 0.9436185868152762 H 0.0 **** 0.41
8305 O 9.192224854425223 5.273524039702918 27.332849277689718 O 0.0 **** -0.82
8306 H 9.200098583160853 5.128139699006047 28.33616557623705 H 0.0 **** 0.41
8307 H 9.365071473092197 4.330178540997093 26.891867020237527 H 0.0 **** 0.41
8308 O 18.691365626306073 39.9793133302667 15.116571499288682 O 0.0 **** -0.82
8309 H 18.18154339670975 39.185171413256604 14.794633651449553 H 0.0 **** 0.41
8310 H 19.652583979391512 39.63932997367064 15.003561959908147 H 0.0 **** 0.41
8311 O 47.811481026814626 6.89564483873076 1.536851055916351 O 0.0 **** -0.82
8312 H 47.673288599655464 6.697894263066573 2.5199590443430964 H 0.0 **** 0.41
8313 H 48.59924571101493 7.478510342441403 1.4396588150357843 H 0.0 **** 0.41
8314 O 45.356238900476335 5.747101493125875 7.313554345784666 O 0.0 **** -0.82
8315 H 46.09786519406862 5.319311338195689 6.7905649887091135 H 0.0 **** 0.41
8316 H 44.51957726986354 5.100945166806035 7.224190798761844 H 0.0 **** 0.41
8317 O 25.47289857515775 7.977311174404495 33.54452796691762 O 0.0 **** -0.82
8318 H 25.983317774073882 8.532025459006098 34.22366624616247 H 0.0 **** 0.41
8319 H 25.625631348204475 7.045238442882732 33.84207191874592 H 0.0 **** 0.41
8320 O 49.553186075859706 32.99849962000397 24.521091859402045 O 0.0 **** -0.82
8321 H 50.39455976729706 32.6533090133224 24.873312709595208 H 0.0 **** 0.41
8322 H 49.302815043469344 33.53552672273926 25.30709282418426 H 0.0 **** 0.41
8323 O 38.8206103100168 40.59986204329298 44.09930238308908 O 0.0 **** -0.82
8324 H 39.08305273294782 41.56194360794064 43.81123723510103 H 0.0 **** 0.41
8325 H 38.5303566065922 40.14174840275944 43.21650605758819 H 0.0 **** 0.41
8326 O 14.826220191477557 32.5541885345382 2.2662024047395093 O 0.0 **** -0.82
8327 H 15.718483289491882 32.28145431083127 1.939153273005573 H 0.0 **** 0.41
8328 H 14.790916924422705 33.494979711762554 1.9995233584421328 H 0.0 **** 0.41
8329 O 43.422993693965054 16.53830119250444 48.33939807883236 O 0.0 **** -0.82
8330 H 43.570860727356276 15.737789986819969 47.76733356226843 H 0.0 **** 0.41
8331 H 42.73954853759028 16.152216259252015 48.949458771088395 H 0.0 **** 0.41
8332 O 30.710665495969227 43.27465878346578 5.884370919107897 O 0.0 **** -0.82
8333 H 30.241108306488 44.20588305692504 5.9131858171157985 H 0.0 **** 0.41
8334 H 31.576545695157932 43.56021741245909 5.479865745127766 H 0.0 **** 0.41
8335 O 49.5110786907493 7.326754514430284 11.102329777740119 O 0.0 **** -0.82
8336 H 49.02749330515547 8.227549098409236 11.340546714689705 H 0.0 **** 0.41
8337 H 49.9003876719201 7.034809486714234 11.990976892704523 H 0.0 **** 0.41
8338 O 39.69450496915742 36.222753876391984 20.636042100866796 O 0.0 **** -0.82
8339 H 40.406867563061056 36.9151133303257 20.479516931918003 H 0.0 **** 0.41
8340 H 38.86727326801454 36.80860610033142 20.505933681587038 H 0.0 **** 0.41
8341 O 43.79117424096087 49.931472357625594 6.372471963425513 O 0.0 **** -0.82
8342 H 43.11631472274397 49.855853459040844 7.244431842561618 H 0.0 **** 0.41
8343 H 43.842634661819076 48.93837029086352 6.2054417478911 H 0.0 **** 0.41
8344 O 2.274147273904952 6.410978815349523 41.21452747236669 O 0.0 **** -0.82
8345 H 2.121133411316448 6.272688877545036 42.22230861985176 H 0.0 **** 0.41
8346 H 2.2972117337569413 7.4132264375665216 41.05562140911005 H 0.0 **** 0.41
8347 O 12.893357392317972 16.51678108516927 27.73555573590021 O 0.0 **** -0.82
8348 H 12.52374169779161 16.649071482200938 28.696940875650412 H 0.0 **** 0.41
8349 H 13.306134462080228 15.598291725978825 27.708884417070262 H 0.0 **** 0.41
8350 O 7.529080802149544 6.097231141408793 12.061881784177714 O 0.0 **** -0.82
8351 H 7.741359488341345 6.4078855250356845 11.156685931240503 H 0.0 **** 0.41
8352 H 8.281551282917945 6.445864720330006 12.636858308305762 H 0.0 **** 0.41
8353 O 23.882333369851292 41.85126326069726 5.664576237778012 O 0.0 **** -0.82
8354 H 24.747911904672133 41.68962678674226 5.120477004561277 H 0.0 **** 0.41
8355 H 23.471866209844563 42.61933411357037 5.220634530526905 H 0.0 **** 0.41
8356 O 33.354584651497284 45.13172190624555 0.8496651646626907 O 0.0 **** -0.82
8357 H 32.80593362111415 44.751991217889305 1.511090168054424 H 0.0 **** 0.41
8358 H 34.00010938259045 44.42667597591762 0.6121234265720836 H 0.0 **** 0.41
8359 O 35.64507283337312 43.01475417065949 36.19879400170678 O 0.0 **** -0.82
8360 H 36.138474033813765 43.04581810146426 35.29458124868777 H 0.0 **** 0.41
8361 H 34.64869510100287 43.233872369682544 35.933379417952494 H 0.0 **** 0.41
8362 O 20.68923968917481 11.343893879821163 44.606256245103815 O 0.0 **** -0.82
8363 H 20.0106046735013 10.678399962252278 44.22382942478247 H 0.0 **** 0.41
8364 H 21.35337957959716 11.48302320129637 43.853847989429035 H 0.0 **** 0.41
8365 O 33.08423596341729 41.66088554444671 7.304491477399078 O 0.0 **** -0.82
8366 H 32.46032261772789 42.32674386124387 7.67218503946043 H 0.0 **** 0.41
8367 H 32.395208950909996 41.12016619649321 6.815758076543975 H 0.0 **** 0.41
8368 O 28.657294281730692 35.05632111301216 40.33564905186256 O 0.0 **** -0.82
8369 H 28.515617879581047 35.92063016540556 40.92311330632356 H 0.0 **** 0.41
8370 H 29.636344405919168 34.929080286312384 40.14360774182305 H 0.0 **** 0.41
8371 O 47.65761207915611 16.364645695198583 35.00738245042003 O 0.0 **** -0.82
8372 H 47.98562760338346 15.937919477627982 35.86517988094547 H 0.0 **** 0.41
8373 H 48.54721901499418 16.57739785166153 34.524859881117344 H 0.0 **** 0.41
8374 O 41.93768333297979 20.554818066054956 38.05819463885592 O 0.0 **** -0.82
8375 H 41.363573038418046 21.30381425841515 37.69641776577805 H 0.0 **** 0.41
8376 H 41.338595550419434 19.733449967630836 37.941170669204226 H 0.0 **** 0.41
8377 O 48.655281112541935 48.69367452250243 33.03398125770632 O 0.0 **** -0.82
8378 H 47.936533472809344 48.10575238184502 32.720074127249404 H 0.0 **** 0.41
8379 H 48.24006759148329 49.601998165946455 32.76885715265139 H 0.0 **** 0.41
8380 O 10.759190468835467 28.869235410503105 8.995680045720112 O 0.0 **** -0.82
8381 H 11.797466146868896 28.943114097162354 8.668531110742736 H 0.0 **** 0.41
8382 H 10.651827278822916 29.575126851881407 9.77542786696705 H 0.0 **** 0.41
8383 O 47.58965353935986 42.12559266251217 49.87297865769044 O 0.0 **** -0.82
8384 H 47.644737013920036 41.74041267470441 48.94368978541727 H 0.0 **** 0.41
8385 H 47.32436018009051 43.0862126591803 49.639201452176174 H 0.0 **** 0.41
8386 O 40.190453355145344 41.97530171626325 3.785139908067066 O 0.0 **** -0.82
8387 H 39.86223336513988 42.24108288523855 2.8740936148662115 H 0.0 **** 0.41
8388 H 40.981861518891606 41.321080209616056 3.5809285974293346 H 0.0 **** 0.41
8389 O 21.37555500684375 24.968523894796906 45.71409771088093 O 0.0 **** -0.82
8390 H 21.403953924118 24.25271455788829 45.00127378585526 H 0.0 **** 0.41
8391 H 21.150415816992684 24.41940131901733 46.53639916414976 H 0.0 **** 0.41
8392 O 41.15053523538076 7.335848298849058 17.82303959908199 O 0.0 **** -0.82
8393 H 40.73164348663066 6.7319311829084825 17.111323322406424 H 0.0 **** 0.41
8394 H 41.358209467260025 6.597420322439838 18.510474682874236 H 0.0 **** 0.41
8395 O 49.01148063798635 41.76172883679233 44.06655789061468 O 0.0 **** -0.82
8396 H 49.53828277109822 41.30803418177507 43.32953261239408 H 0.0 **** 0.41
8397 H 49.69920943073467 42.411602169688265 44.437809093530284 H 0.0 **** 0.41
8398 O 14.787009705345822 30.32967681113133 46.60859187841567 O 0.0 **** -0.82
8399 H 14.905509738999763 29.296342370676577 46.471902004563844 H 0.0 **** 0.41
8400 H 15.682558481277242 30.75011934505595 46.28767978647995 H 0.0 **** 0.41
8401 O 48.354840672818725 33.46765412416264 17.467421262309898 O 0.0 **** -0.82
8402 H 49.16864196490398 33.447814283504194 16.85450795605553 H 0.0 **** 0.41
8403 H 48.212098606610304 32.518962595269095 17.842885092324607 H 0.0 **** 0.41
8404 O 11.476872020671482 13.105675188309975 3.656662720952049 O 0.0 **** -0.82
8405 H 12.125498627849765 12.433163931141817 3.2715051828675996 H 0.0 **** 0.41
8406 H 12.050521331329348 13.95274183707785 3.4672780641564174 H 0.0 **** 0.41
8407 O 33.66874821723708 20.762113007271502 18.447947989909864 O 0.0 **** -0.82
8408 H 32.97853595123943 20.768458218055837 17.648735395300974 H 0.0 **** 0.41
8409 H 33.413730025621746 21.664478618217366 18.83187152246525 H 0.0 **** 0.41
8410 O 43.308996171372314 6.528378424824877 34.30108447358777 O 0.0 **** -0.82
8411 H 43.92289474283899 6.742967705517826 33.49622165676406 H 0.0 **** 0.41
8412 H 43.378811312707484 7.416420342143916 34.76203757266997 H 0.0 **** 0.41
8413 O 25.16237930307216 18.224067240486562 35.14143673150741 O 0.0 **** -0.82
8414 H 25.661443678744337 18.400737418861183 36.03390082045155 H 0.0 **** 0.41
8415 H 25.872422051020497 17.988937935833064 34.42803282459251 H 0.0 **** 0.41
8416 O 49.474488037332534 4.843167070235072 37.063168068338165 O 0.0 **** -0.82
8417 H 50.194372590912415 4.894698287678822 36.4032465205031 H 0.0 **** 0.41
8418 H 49.401922159046855 3.9321583141887606 37.497962213088584 H 0.0 **** 0.41
8419 O 40.564226435676204 21.98171533995307 48.611765565558294 O 0.0 **** -0.82
8420 H 40.25191215038073 21.130339820071445 49.03620132806075 H 0.0 **** 0.41
8421 H 41.50008705248195 21.73934649297788 48.27722929083089 H 0.0 **** 0.41
8422 O 2.1727722207279356 5.510214302282562 14.196889458550507 O 0.0 **** -0.82
8423 H 1.4442075242000882 6.225183319262839 14.243656992458076 H 0.0 **** 0.41
8424 H 2.8048961916852377 5.836766694507442 13.537940096745169 H 0.0 **** 0.41
8425 O 12.071113196106788 6.511542238199953 17.175201257136013 O 0.0 **** -0.82
8426 H 12.682519807541802 5.9968162754628445 17.85756580895979 H 0.0 **** 0.41
8427 H 12.503916640467589 6.559058478702698 16.263044852961226 H 0.0 **** 0.41
8428 O 42.431971704950165 16.308515306751886 24.259934350722972 O 0.0 **** -0.82
8429 H 41.446240254322944 16.31285245125956 24.478698626265 H 0.0 **** 0.41
8430 H 42.806645182436455 16.89192133678989 24.94446136066128 H 0.0 **** 0.41
8431 O 8.05637176734502 29.74870973483921 12.630097742209136 O 0.0 **** -0.82
8432 H 8.248688515324439 28.789519162534113 12.857259816297962 H 0.0 **** 0.41
8433 H 7.160986264123856 30.027181965744123 13.085048828422382 H 0.0 **** 0.41
8434 O 46.71956479860862 48.10716172462884 15.063201697261078 O 0.0 **** -0.82
8435 H 46.467101851210174 47.57724211589478 15.876865123760226 H 0.0 **** 0.41
8436 H 46.62845720994578 49.08157943749567 15.336408987537382 H 0.0 **** 0.41
8437 O 31.037093977772447 6.458136051318201 17.91695550515757 O 0.0 **** -0.82
8438 H 30.87595670530299 5.421390135928629 18.01413254201798 H 0.0 **** 0.41
8439 H 31.997316153901984 6.655595183864195 18.217410891671015 H 0.0 **** 0.41
8440 O 41.39227247390106 11.073998421511803 6.503621002541035 O 0.0 **** -0.82
8441 H 42.29433508759063 11.561685172764815 6.492898912843075 H 0.0 **** 0.41
8442 H 40.75798639852222 11.701985311507311 6.9250071049579525 H 0.0 **** 0.41
8443 O 16.212594993448082 2.70974526516661 29.126828965126002 O 0.0 **** -0.82
8444 H 15.765334908895358 2.4997375089214073 28.27305674088787 H 0.0 **** 0.41
8445 H 17.119978835732017 3.152342139020336 28.958679145449242 H 0.0 **** 0.41
8446 O 31.71424099667428 33.96718189524823 44.7867441942343 O 0.0 **** -0.82
8447 H 31.849458766066704 34.708862962721184 45.42443829590956 H 0.0 **** 0.41
8448 H 31.642607025900784 34.47523071913786 43.900889653446086 H 0.0 **** 0.41
8449 O 14.920150459107091 23.657213590814727 40.47289441047996 O 0.0 **** -0.82
8450 H 15.100231845443574 23.88690820367588 41.423632171538664 H 0.0 **** 0.41
8451 H 15.08611379335781 22.622528868760295 40.45554670799321 H 0.0 **** 0.41
8452 O 12.151515563566598 48.970270959018556 24.378300334443733 O 0.0 **** -0.82
8453 H 12.780546065853372 49.32763938191841 23.749603788896835 H 0.0 **** 0.41
8454 H 12.153892185805496 49.59589157401124 25.17562122031555 H 0.0 **** 0.41
8455 O 42.18417311667362 34.86374161608864 10.151672960121545 O 0.0 **** -0.82
8456 H 41.39854922170729 35.26290544251627 9.620276922325429 H 0.0 **** 0.41
8457 H 42.6697829973219 34.31821809579913 9.395262983521935 H 0.0 **** 0.41
8458 O 41.63925751313912 26.625947545583685 11.726097000007343 O 0.0 **** -0.82
8459 H 40.797053530801094 26.01508162895172 11.889673356345597 H 0.0 **** 0.41
8460 H 42.36593884030909 25.939664567238793 11.570901510895474 H 0.0 **** 0.41
8461 O 28.75283192304802 22.0090777987338 41.2391529437549 O 0.0 **** -0.82
8462 H 29.29469698509115 21.398899433241553 41.75926535286066 H 0.0 **** 0.41
8463 H 27.832458810523217 21.685478459388207 41.44690028102648 H 0.0 **** 0.41
8464 O 30.13607878668908 43.66462008961042 47.1206071703495 O 0.0 **** -0.82
8465 H 31.05622509873965 43.34701031075457 46.642447713321296 H 0.0 **** 0.41
8466 H 29.948805797028296 42.81721590964484 47.65023821291425 H 0.0 **** 0.41
8467 O 19.149284883310685 42.107649665899366 40.31819729300234 O 0.0 **** -0.82
8468 H 19.36256962869267 41.12891607663698 40.4498535886242 H 0.0 **** 0.41
8469 H 19.11483283688078 42.57728268834763 41.2018865642541 H 0.0 **** 0.41
8470 O 28.92129747633271 23.926913709967216 33.24404371895728 O 0.0 **** -0.82
8471 H 29.32634659479264 24.851669851774215 33.49540934552261 H 0.0 **** 0.41
8472 H 29.334968185492073 23.6806948402434 32.37697912762216 H 0.0 **** 0.41
8473 O 38.20660818318324 33.98220129712777 27.354505155207804 O 0.0 **** -0.82
8474 H 38.985119574643456 33.9935867696893 27.98560552689636 H 0.0 **** 0.41
8475 H 38.04415390715922 34.97353929563836 27.121264046750117 H 0.0 **** 0.41
8476 O 38.61835326075078 8.827889704654227 20.272761946589696 O 0.0 **** -0.82
8477 H 38.65765049511352 8.974228862047704 21.273511643500655 H 0.0 **** 0.41
8478 H 39.449823538731685 9.199500315680975 19.781999102623644 H 0.0 **** 0.41
8479 O 5.290460309713742 38.54257759461983 40.95952999002816 O 0.0 **** -0.82
8480 H 5.3118770618428295 39.38420872505256 40.49616478159302 H 0.0 **** 0.41
8481 H 6.093948765282149 37.969865245851025 40.61046441331113 H 0.0 **** 0.41
8482 O 45.956906772508844 5.875897110990742 36.96731358935608 O 0.0 **** -0.82
8483 H 46.56602576197878 5.974480473207954 37.76852786874234 H 0.0 **** 0.41
8484 H 45.783743536335514 6.787776200303057 36.55624842502717 H 0.0 **** 0.41
8485 O 15.219442375155356 46.78754409098394 30.566633753210525 O 0.0 **** -0.82
8486 H 15.321428479994852 45.98095189780268 29.960116448697626 H 0.0 **** 0.41
8487 H 16.205787593378602 47.148128583268104 30.59552167854824 H 0.0 **** 0.41
8488 O 30.688810539614778 1.291708347115794 32.197326820793 O 0.0 **** -0.82
8489 H 30.662718754283087 1.8437241307770846 33.04748225107257 H 0.0 **** 0.41
8490 H 31.612193327034188 0.7953310263600446 32.30740672624321 H 0.0 **** 0.41
8491 O 7.308507028444802 13.356095074655059 29.709126430118495 O 0.0 **** -0.82
8492 H 7.022876989252043 14.008749854906142 29.01138743177287 H 0.0 **** 0.41
8493 H 6.86818288754207 12.495641583670235 29.438661392434803 H 0.0 **** 0.41
8494 O 2.6498436248592157 17.16443761232003 15.4076183979583 O 0.0 **** -0.82
8495 H 1.768236525431739 16.786763006308178 15.637074914661596 H 0.0 **** 0.41
8496 H 2.515448658697885 18.114892463963717 15.172915688168503 H 0.0 **** 0.41
8497 O 40.75782552886559 30.736641368882392 24.31702886048273 O 0.0 **** -0.82
8498 H 40.55926456238097 30.503778761865057 23.334418317510835 H 0.0 **** 0.41
8499 H 39.84002151459831 30.754600305611525 24.661632378134733 H 0.0 **** 0.41
8500 O 9.972502935711086 38.390568757598054 18.8978970447092 O 0.0 **** -0.82
8501 H 10.675595313757881 38.60933556930175 18.180868824006723 H 0.0 **** 0.41
8502 H 9.405530510079664 37.64278212114974 18.48616954354185 H 0.0 **** 0.41
8503 O 38.39794692238807 29.715617793971063 35.73103823094058 O 0.0 **** -0.82
8504 H 39.102757410620804 30.15897736447597 36.3213628652985 H 0.0 **** 0.41
8505 H 38.51024377210804 30.293025938389626 34.89484099406914 H 0.0 **** 0.41
8506 O 7.4828384449051635 14.480066238331455 15.669613803870917 O 0.0 **** -0.82
8507 H 7.4240437827294095 15.469420050851111 15.909616270222479 H 0.0 **** 0.41
8508 H 7.649532143859271 14.630438969708763 14.657774420127438 H 0.0 **** 0.41
8509 O 9.473235191199059 44.642918781761786 25.786315770274072 O 0.0 **** -0.82
8510 H 10.036828527399265 43.766118944307664 25.915545020198763 H 0.0 **** 0.41
8511 H 10.148798433542758 45.34267788198061 25.540828270630417 H 0.0 **** 0.41
8512 O 16.063564470704293 43.00989878138405 17.823056318387717 O 0.0 **** -0.82
8513 H 15.277207938660853 43.23145044260237 17.175179379457987 H 0.0 **** 0.41
8514 H 17.016018629442232 43.10169189818815 17.34925882456241 H 0.0 **** 0.41
8515 O 2.4226096505222685 27.99968055427355 23.96631392434814 O 0.0 **** -0.82
8516 H 3.1727439204519285 27.893276611573874 24.676676017912357 H 0.0 **** 0.41
8517 H 2.8328994284308564 27.735238357755545 23.05931172107639 H 0.0 **** 0.41
8518 O 18.257517732641933 18.883736739473445 1.1248569880321426 O 0.0 **** -0.82
8519 H 18.19016906251812 19.597331457489116 0.45705617549668176 H 0.0 **** 0.41
8520 H 17.40885595124037 18.300136976439095 0.9913521086101085 H 0.0 **** 0.41
8521 O 30.371096233876347 27.82111663547621 16.36169323419656 O 0.0 **** -0.82
8522 H 29.8663821455646 28.458917771374722 15.802497127772439 H 0.0 **** 0.41
8523 H 31.303290883239114 28.159889965743808 16.214221528797456 H 0.0 **** 0.41
8524 O 23.00569687437411 45.741238797273525 27.49179073228655 O 0.0 **** -0.82
8525 H 23.439847333565538 46.064209046267734 28.330763568766113 H 0.0 **** 0.41
8526 H 23.650503800892245 45.290835174040026 26.87857669492167 H 0.0 **** 0.41
8527 O 7.042799768117905 28.421216075305043 49.71184191254147 O 0.0 **** -0.82
8528 H 6.19068974900328 27.895412604700653 49.84698639242473 H 0.0 **** 0.41
8529 H 6.574363839551481 29.16561774303748 49.16214715649145 H 0.0 **** 0.41
8530 O 6.987056915858859 40.77980571284629 48.00079970304162 O 0.0 **** -0.82
8531 H 6.643999336933461 41.44707181686104 47.3476692369831 H 0.0 **** 0.41
8532 H 7.976235613950941 40.89501940653863 47.806201428119266 H 0.0 **** 0.41
8533 O 20.806625979980325 8.684861586958396 30.725646287942183 O 0.0 **** -0.82
8534 H 19.85317661998187 8.448171559729836 30.492378171798887 H 0.0 **** 0.41
8535 H 20.91343212663167 9.231632582309848 31.58929301931112 H 0.0 **** 0.41
8536 O 12.998021615137187 39.4958820374199 38.75024083482158 O 0.0 **** -0.82
8537 H 13.970255222268033 39.49565944906508 39.08592301084947 H 0.0 **** 0.41
8538 H 12.718191987932757 40.424426906931096 38.48323580003678 H 0.0 **** 0.41
8539 O 38.95635886340406 19.366284345210733 43.019905054113885 O 0.0 **** -0.82
8540 H 39.02890284271997 20.192549140355233 43.581263770620644 H 0.0 **** 0.41
8541 H 39.66768177145972 19.73021285457592 42.34359314093699 H 0.0 **** 0.41
8542 O 35.239690094078696 39.0357394485857 24.78852516973531 O 0.0 **** -0.82
8543 H 35.69719318976165 38.57129061304643 24.01395467923011 H 0.0 **** 0.41
8544 H 35.97697490644617 39.2606035659041 25.392743069585222 H 0.0 **** 0.41
8545 O 42.72883551460832 47.95316094297595 1.3425727885477368 O 0.0 **** -0.82
8546 H 42.036846283137365 47.43746897083968 0.7619667408506292 H 0.0 **** 0.41
8547 H 43.11870892872672 47.2850903815773 1.9546973496208835 H 0.0 **** 0.41
8548 O 13.744973009338395 40.35719072872396 49.88222268285173 O 0.0 **** -0.82
8549 H 13.860129704335762 40.92304991833789 49.06790851688012 H 0.0 **** 0.41
8550 H 12.785203891121228 40.02737092680503 49.862854112332755 H 0.0 **** 0.41
8551 O 7.89403910104685 0.17817003103143492 47.99404436339435 O 0.0 **** -0.82
8552 H 8.816902185899378 0.4470667045367378 47.753466376165015 H 0.0 **** 0.41
8553 H 7.689995728524355 -0.612626770521814 47.4075411279693 H 0.0 **** 0.41
8554 O 35.16805060606215 25.60804936205643 17.267509536899865 O 0.0 **** -0.82
8555 H 35.3315492944192 25.888806596214156 18.236231669285374 H 0.0 **** 0.41
8556 H 34.44269040587687 24.91830812002943 17.359619466562407 H 0.0 **** 0.41
8557 O 43.27969034582488 36.09909962016939 2.735940507683873 O 0.0 **** -0.82
8558 H 43.981337414577325 36.80562475023226 2.7003796271093155 H 0.0 **** 0.41
8559 H 43.838545521688296 35.428580569101534 3.3302828668269746 H 0.0 **** 0.41
8560 O 49.40647183447397 3.4276727951867594 47.04761951257187 O 0.0 **** -0.82
8561 H 49.53362209953001 3.3351307429921917 48.0815556917394 H 0.0 **** 0.41
8562 H 49.94590801797619 4.250525264807908 46.743219329087 H 0.0 **** 0.41
8563 O 28.355756897711856 46.438543357907996 14.24785188873905 O 0.0 **** -0.82
8564 H 27.55083136733026 45.920969145616 13.92277043350424 H 0.0 **** 0.41
8565 H 28.07061106548315 47.348807306405966 14.422405078516036 H 0.0 **** 0.41
8566 O 0.27188099326023973 7.63176754378479 35.11084885264033 O 0.0 **** -0.82
8567 H -0.543945020845733 7.735512423417397 34.527342497553796 H 0.0 **** 0.41
8568 H 1.047403457969473 8.097993092951114 34.70912945499191 H 0.0 **** 0.41
8569 O 44.16238920446733 18.902604676350535 37.40865691774705 O 0.0 **** -0.82
8570 H 43.533333643670026 19.591993673586426 37.767922736211744 H 0.0 **** 0.41
8571 H 44.09012590950748 19.06807363210577 36.396354299073586 H 0.0 **** 0.41
8572 O 35.50918194678464 2.1196133066019174 8.883378756071707 O 0.0 **** -0.82
8573 H 36.39094033469484 2.6350325437939808 9.01168818511232 H 0.0 **** 0.41
8574 H 35.14750452634575 2.569922174878184 8.061335203488007 H 0.0 **** 0.41
8575 O 30.098657131008302 38.13197890684123 43.628545513427184 O 0.0 **** -0.82
8576 H 30.46069790666971 39.083878377497356 43.46606531076303 H 0.0 **** 0.41
8577 H 29.68596224626345 38.04919883011381 44.51719302576902 H 0.0 **** 0.41
8578 O 6.491944215698938 20.91111773543003 46.26823609564965 O 0.0 **** -0.82
8579 H 6.362623654536202 20.36531829773426 47.1449250217036 H 0.0 **** 0.41
8580 H 6.123113925856165 21.794861507793787 46.57418045190956 H 0.0 **** 0.41
8581 O 40.83171086132191 15.077968738006016 2.3989363821218106 O 0.0 **** -0.82
8582 H 40.869428383478535 14.113226828008631 2.5345259126148676 H 0.0 **** 0.41
8583 H 39.87027657704353 15.45782410431413 2.58232166161865 H 0.0 **** 0.41
8584 O 30.950845744348225 38.67762219656241 18.188781655450168 O 0.0 **** -0.82
8585 H 31.451864299439936 39.501359389377576 18.436976438921103 H 0.0 **** 0.41
8586 H 31.66550270059238 37.89628512719876 18.214317038257292 H 0.0 **** 0.41
8587 O 12.584017838676507 41.48108397430302 17.045432626340272 O 0.0 **** -0.82
8588 H 12.833166852133907 40.95256971223018 17.913005970047372 H 0.0 **** 0.41
8589 H 12.254319414793153 40.80904221968403 16.36447778538662 H 0.0 **** 0.41
8590 O 22.084755420931806 31.047982410727144 10.339515158564069 O 0.0 **** -0.82
8591 H 22.10224193990047 30.261729275773362 10.956228908520202 H 0.0 **** 0.41
8592 H 22.56334650733373 31.774208781494792 10.837812702935821 H 0.0 **** 0.41
8593 O 0.8720562142967481 5.376986691510102 46.17415243633472 O 0.0 **** -0.82
8594 H 0.2767495111282514 6.213804175991877 46.118482194225 H 0.0 **** 0.41
8595 H 1.0771276064970507 5.084251057918812 45.20588359516935 H 0.0 **** 0.41
8596 O 6.5067274414409795 19.201359107368965 8.545471214868243 O 0.0 **** -0.82
8597 H 6.906647846207029 19.160233049149284 7.6358362012238885 H 0.0 **** 0.41
8598 H 6.327196264777768 18.216118343802577 8.824500780110398 H 0.0 **** 0.41
8599 O 45.02136707551248 42.91001984728931 42.46960617269302 O 0.0 **** -0.82
8600 H 45.410219793572075 41.9891345331684 42.69061951952732 H 0.0 **** 0.41
8601 H 45.78635356689486 43.57173213486319 42.670631189745464 H 0.0 **** 0.41
8602 O 17.035995707582174 39.26001100274589 11.126596527704358 O 0.0 **** -0.82
8603 H 17.329431794989304 40.26155377069127 10.969704062254635 H 0.0 **** 0.41
8604 H 16.136577652427306 39.301597097371754 11.50812385927722 H 0.0 **** 0.41
8605 O 45.4630546121395 21.832114844363478 22.24374163269441 O 0.0 **** -0.82
8606 H 45.49816305317325 22.090853152577733 23.210492010097923 H 0.0 **** 0.41
8607 H 45.959445806265116 22.592446635461712 21.737308778830055 H 0.0 **** 0.41
8608 O 4.551314883065591 12.592219148679618 2.019594564391383 O 0.0 **** -0.82
8609 H 3.581222333265811 12.772895074650577 1.9328518755231272 H 0.0 **** 0.41
8610 H 4.988920300386887 13.475903251019751 1.8885326031855953 H 0.0 **** 0.41
8611 O 39.255921908675106 11.06180130582078 30.98208900054091 O 0.0 **** -0.82
8612 H 39.54723699118575 11.419646464487059 30.087983858525217 H 0.0 **** 0.41
8613 H 39.574942203824925 11.9419395440406 31.41449597672559 H 0.0 **** 0.41
8614 O 7.904115280966572 41.224237921633346 42.363803560802324 O 0.0 **** -0.82
8615 H 7.030618009526741 41.266237417146336 41.76443533407402 H 0.0 **** 0.41
8616 H 8.319003301240542 40.212839706826394 42.317289795332414 H 0.0 **** 0.41
8617 O 35.40605717395978 38.66641833616857 37.63882217143891 O 0.0 **** -0.82
8618 H 35.11991515325557 38.061263245045076 38.4177212834896 H 0.0 **** 0.41
8619 H 36.39283119184763 38.813976985113065 37.96670746174968 H 0.0 **** 0.41
8620 O 10.009150779434874 1.434780212290491 28.419536971576985 O 0.0 **** -0.82
8621 H 10.918238367187904 1.8597896634013793 28.592346815420854 H 0.0 **** 0.41
8622 H 10.20081648286449 0.47577794087734304 28.07590507531498 H 0.0 **** 0.41
8623 O 16.605865467313034 10.260144233204514 6.241529854879843 O 0.0 **** -0.82
8624 H 16.42327852264964 9.531453226114465 6.926632200958444 H 0.0 **** 0.41
8625 H 15.760611032992587 10.245587974716415 5.673164518500236 H 0.0 **** 0.41
8626 O 35.14825383079735 46.44120874062858 26.352842513255435 O 0.0 **** -0.82
8627 H 35.10965845269582 45.869142103775395 27.184268921935807 H 0.0 **** 0.41
8628 H 34.646056449737266 45.86750578043288 25.672678678737253 H 0.0 **** 0.41
8629 O 25.406262666002213 25.612600229282748 7.1088764215033 O 0.0 **** -0.82
8630 H 24.708350243374834 25.07166373597237 7.590268742507171 H 0.0 **** 0.41
8631 H 25.023052800200922 25.515914359092775 6.187303704712134 H 0.0 **** 0.41
8632 O 4.914685183588233 45.23161417675147 42.09532577364366 O 0.0 **** -0.82
8633 H 5.296456504138845 44.4828634501621 41.44819677807387 H 0.0 **** 0.41
8634 H 4.5691404170737755 46.01892513172637 41.52669220877809 H 0.0 **** 0.41
8635 O 35.14339405871015 26.460452686221817 19.638088720096576 O 0.0 **** -0.82
8636 H 35.659884054895414 27.155213519306088 20.172653655901605 H 0.0 **** 0.41
8637 H 34.28136201357467 26.494717100787014 20.250690817005907 H 0.0 **** 0.41
8638 O 43.11550337097282 42.81374672435918 44.501390430980585 O 0.0 **** -0.82
8639 H 43.5260725136486 43.11804802316719 43.649964478246964 H 0.0 **** 0.41
8640 H 42.55902861650236 43.65927991968513 44.79554339065381 H 0.0 **** 0.41
8641 O 24.414858459256372 18.660762732375375 16.64670629817347 O 0.0 **** -0.82
8642 H 24.098478498906047 17.767386809113194 17.02817250539752 H 0.0 **** 0.41
8643 H 25.392482375959723 18.83628616854938 16.94821048102095 H 0.0 **** 0.41
8644 O 35.935262498004285 45.17475160865268 3.463452446665812 O 0.0 **** -0.82
8645 H 36.15389955689394 44.95618148614088 4.419765726212596 H 0.0 **** 0.41
8646 H 36.26556493135595 46.12997249661445 3.2760671512835913 H 0.0 **** 0.41
8647 O 49.35104244387868 15.409040430380326 44.61545915069762 O 0.0 **** -0.82
8648 H 48.890204145699 14.891204387134689 45.305322210165116 H 0.0 **** 0.41
8649 H 49.46580707781531 14.711368403384444 43.87492115001764 H 0.0 **** 0.41
8650 O 20.361756889154083 9.537633668242975 13.785681485319596 O 0.0 **** -0.82
8651 H 21.30080664109744 9.697834896273477 13.567376125663827 H 0.0 **** 0.41
8652 H 19.965296832837435 9.403682097550963 12.85402360849419 H 0.0 **** 0.41
8653 O 29.234784805456584 35.972464132309 32.93308962099498 O 0.0 **** -0.82
8654 H 28.992372063054376 36.922345316046005 32.57947979483885 H 0.0 **** 0.41
8655 H 29.175110742421154 36.0654295634529 33.94837864836573 H 0.0 **** 0.41
8656 O 3.2784796305165713 21.581251919439453 46.58262960379266 O 0.0 **** -0.82
8657 H 2.8381972391266217 22.31665791129527 47.177438926255604 H 0.0 **** 0.41
8658 H 3.3845320757155903 20.754129239619697 47.14100351703432 H 0.0 **** 0.41
8659 O 5.101130455455378 30.24408863844651 47.27220808655679 O 0.0 **** -0.82
8660 H 4.226487211833932 30.685223950560406 47.06396763241726 H 0.0 **** 0.41
8661 H 4.92621854134612 29.30766640437559 47.64544456800982 H 0.0 **** 0.41
8662 O 38.64291070060809 24.388809961155346 14.91269681002327 O 0.0 **** -0.82
8663 H 39.06725518834446 25.049124829832706 14.278985861938795 H 0.0 **** 0.41
8664 H 38.99199524073771 24.590898283860852 15.875296333235273 H 0.0 **** 0.41
8665 O 4.883546120442512 4.311177425853746 30.15077530017936 O 0.0 **** -0.82
8666 H 3.8868184313936824 4.592271585669545 30.11795056347296 H 0.0 **** 0.41
8667 H 5.268663789809631 4.302941342220614 29.229128531272096 H 0.0 **** 0.41
8668 O 35.27510432107365 39.863847893725335 17.745625038030326 O 0.0 **** -0.82
8669 H 35.08714160080729 40.68407356656833 17.21391993611168 H 0.0 **** 0.41
8670 H 34.8374163387884 39.90118131770606 18.675944230256885 H 0.0 **** 0.41
8671 O 7.674053249923048 35.80926284151827 20.708388147315834 O 0.0 **** -0.82
8672 H 8.42273170364436 35.24916100269434 21.171451850286072 H 0.0 **** 0.41
8673 H 7.2805233386228 35.2399239962537 19.996974635850737 H 0.0 **** 0.41
8674 O 17.882818183318278 28.77742914223638 44.617418311830406 O 0.0 **** -0.82
8675 H 17.53757683773395 29.565320969119707 45.194105557612396 H 0.0 **** 0.41
8676 H 18.83396311868995 29.121038249335147 44.369839216093965 H 0.0 **** 0.41
8677 O 40.565822908180024 35.26059757768051 12.239390647964742 O 0.0 **** -0.82
8678 H 41.176157717087506 35.06988024372446 11.464144624691741 H 0.0 **** 0.41
8679 H 41.17122392352482 35.41220651489521 13.022969207325383 H 0.0 **** 0.41
8680 O 38.86385682060689 44.07024441581634 13.10537053538197 O 0.0 **** -0.82
8681 H 38.94194133589345 43.25764618748915 12.517401700275864 H 0.0 **** 0.41
8682 H 38.81919838068841 44.9487775741334 12.536893288110099 H 0.0 **** 0.41
8683 O 37.17713437977327 5.198600255224341 48.25390683828904 O 0.0 **** -0.82
8684 H 36.27382817741705 5.5189570171442535 47.80364298908271 H 0.0 **** 0.41
8685 H 37.1552458768524 5.829685728897809 49.0315040750893 H 0.0 **** 0.41
8686 O 24.24826602832966 20.15663949088065 20.436474614984206 O 0.0 **** -0.82
8687 H 24.21627599453907 19.429832577209226 19.705602657891777 H 0.0 **** 0.41
8688 H 24.772447679263774 19.79769804771044 21.197217233606285 H 0.0 **** 0.41
8689 O 11.089093431544697 41.14481713963938 44.122123590158374 O 0.0 **** -0.82
8690 H 11.468462736391182 41.30744233316789 43.184436712865356 H 0.0 **** 0.41
8691 H 11.546068618549128 40.31049656270054 44.401470886753515 H 0.0 **** 0.41
8692 O 25.281811364334715 20.777602263809907 2.3133295912669833 O 0.0 **** -0.82
8693 H 24.37641701971299 21.192817948425496 2.631049840985156 H 0.0 **** 0.41
8694 H 24.94416534640709 20.013116176317354 1.808591324972928 H 0.0 **** 0.41
8695 O 44.10210520703134 17.531921790477426 44.661718668072915 O 0.0 **** -0.82
8696 H 44.055544924703554 18.20329971894816 45.36949084999181 H 0.0 **** 0.41
8697 H 43.41170733844952 16.790678743493885 44.938972404311116 H 0.0 **** 0.41
8698 O 33.35820702520559 19.752197102537878 25.26090485102797 O 0.0 **** -0.82
8699 H 32.374481276772386 19.672807686979073 25.573326087849054 H 0.0 **** 0.41
8700 H 33.955406687055685 19.825458523276815 26.057016773316988 H 0.0 **** 0.41
8701 O 5.834967050735017 47.04784256717442 49.24967159442378 O 0.0 **** -0.82
8702 H 5.941633952050786 46.36475908059246 50.035829572453444 H 0.0 **** 0.41
8703 H 5.956482820681764 47.95356445295106 49.708410301686826 H 0.0 **** 0.41
8704 O 23.537550103231744 37.89486144905146 2.1882295569743215 O 0.0 **** -0.82
8705 H 23.705329551487008 38.63346343305889 1.4918482359714849 H 0.0 **** 0.41
8706 H 23.208260747988053 38.36785793784213 3.015792068180332 H 0.0 **** 0.41
8707 O 42.88618506332456 47.87420031527356 26.938209790231735 O 0.0 **** -0.82
8708 H 43.714766576342655 48.23049830304566 27.30791065740485 H 0.0 **** 0.41
8709 H 42.81179990722387 48.40844863921613 26.09087709435624 H 0.0 **** 0.41
8710 O 47.84996157467307 43.648360691129135 40.218929854221514 O 0.0 **** -0.82
8711 H 47.488661417649936 44.536486631991416 40.428269792103414 H 0.0 **** 0.41
8712 H 48.58479277245738 43.452235359221895 40.8597664969069 H 0.0 **** 0.41
8713 O 13.153862505384282 17.755465966010767 23.42068745008996 O 0.0 **** -0.82
8714 H 12.850648707628707 18.47276347871323 22.802003617489426 H 0.0 **** 0.41
8715 H 13.809113834453655 18.20031350429789 24.037216236033714 H 0.0 **** 0.41
8716 O 16.73237116480027 35.44948212862909 30.20995852329854 O 0.0 **** -0.82
8717 H 17.606584651484717 35.711044206155904 30.653937312933863 H 0.0 **** 0.41
8718 H 16.32448967386523 34.81409926943593 30.915670210591145 H 0.0 **** 0.41
8719 O 14.811444966910939 34.88498486879468 20.895605247993956 O 0.0 **** -0.82
8720 H 15.757710572512794 34.589395955896336 20.68642628949992 H 0.0 **** 0.41
8721 H 14.188775162867891 34.34923290770353 20.320594243283892 H 0.0 **** 0.41
8722 O 41.360641769612734 16.012992951257942 31.511154777699744 O 0.0 **** -0.82
8723 H 41.45100608063184 16.61555262461286 30.660127202281714 H 0.0 **** 0.41
8724 H 41.33415824774205 16.592956476520314 32.377928972479836 H 0.0 **** 0.41
8725 O 46.16645471808459 16.56731626480793 5.65722235631497 O 0.0 **** -0.82
8726 H 45.30386890016029 16.167722973151186 6.1428539638330575 H 0.0 **** 0.41
8727 H 46.28684237079467 16.175210766454654 4.716312366495284 H 0.0 **** 0.41
8728 O 35.548589895845005 34.97596018513297 31.871715367260176 O 0.0 **** -0.82
8729 H 36.50849095391198 35.05539286356643 31.459721978581022 H 0.0 **** 0.41
8730 H 35.13051633515985 34.15935460940235 31.46576431770156 H 0.0 **** 0.41
8731 O 26.024230861395786 4.0742777493599736 20.08737604544003 O 0.0 **** -0.82
8732 H 25.54803410633605 3.2220303644241213 20.18612500579796 H 0.0 **** 0.41
8733 H 25.298339572592067 4.78356210624395 20.076871204041293 H 0.0 **** 0.41
8734 O 23.610075377810148 8.144151096642448 26.64024776407064 O 0.0 **** -0.82
8735 H 24.54440057556444 7.745188677743596 26.731366304283895 H 0.0 **** 0.41
8736 H 23.647085430168264 8.808384898259177 27.362009152885626 H 0.0 **** 0.41
8737 O 48.37861166404976 40.1321327885938 29.63995194471819 O 0.0 **** -0.82
8738 H 47.3922606784938 40.08633778777664 29.37690829281696 H 0.0 **** 0.41
8739 H 48.42987732592789 41.089849171938354 29.974166769235712 H 0.0 **** 0.41
8740 O 27.82038016906453 15.198900997153189 10.060083376212738 O 0.0 **** -0.82
8741 H 28.435067099489835 15.27153463731112 9.225967459416012 H 0.0 **** 0.41
8742 H 27.673697953275024 16.168240205608427 10.379815243537472 H 0.0 **** 0.41
8743 O 40.90214881145348 2.6030336850834246 21.94311402631221 O 0.0 **** -0.82
8744 H 41.89737425689865 2.679128633856152 22.172822312990288 H 0.0 **** 0.41
8745 H 40.561383778015525 3.5550672147184343 21.748963409358346 H 0.0 **** 0.41
8746 O 27.559165621784505 45.175649875253406 45.86677384941921 O 0.0 **** -0.82
8747 H 28.4032195224626 45.285361177832584 45.33641030000529 H 0.0 **** 0.41
8748 H 27.654869942020966 44.27336267878697 46.176946654000446 H 0.0 **** 0.41
8749 O 5.021884219439615 48.20317001821206 37.6818131101239 O 0.0 **** -0.82
8750 H 5.8764027217098445 48.68851795231596 37.97166997544661 H 0.0 **** 0.41
8751 H 5.312533478761288 47.43069575882269 37.172137322600925 H 0.0 **** 0.41
8752 O 27.417356838067004 30.135233535269 0.40676255084872537 O 0.0 **** -0.82
8753 H 28.178663323754208 30.160377757934175 -0.25794936510865796 H 0.0 **** 0.41
8754 H 27.081478632013283 31.018602719413664 0.8068964582172171 H 0.0 **** 0.41
8755 O 16.416765749499028 34.01927769786031 27.87291410223368 O 0.0 **** -0.82
8756 H 16.649282019539232 34.56742531009703 28.679295343316763 H 0.0 **** 0.41
8757 H 15.508069397510724 34.41850710316762 27.72351387044158 H 0.0 **** 0.41
8758 O 9.181480897095659 12.187130708976468 7.2716944455074355 O 0.0 **** -0.82
8759 H 8.645388466597486 11.384486984995057 7.438892259406622 H 0.0 **** 0.41
8760 H 8.758644115755864 12.613712503385486 6.450763946637686 H 0.0 **** 0.41
8761 O 37.07934747550654 33.11438457661019 0.9401157343014923 O 0.0 **** -0.82
8762 H 37.59164933124266 33.565207694088784 1.7001159911980441 H 0.0 **** 0.41
8763 H 37.38187772736779 33.602440086807604 0.1255054886325506 H 0.0 **** 0.41
8764 O 0.45634723049769893 41.75399838241446 0.9871750953429463 O 0.0 **** -0.82
8765 H 1.1513152961723354 41.50925671836044 0.33405442405769503 H 0.0 **** 0.41
8766 H -0.29361784973490757 42.15941632550634 0.41346000852178344 H 0.0 **** 0.41
8767 O 2.9862586516706293 2.4939160902923163 2.853304379422358 O 0.0 **** -0.82
8768 H 3.1483565460996257 1.521214182985112 2.9860246215312807 H 0.0 **** 0.41
8769 H 3.900645379887186 2.8875542427006735 3.0713985859808863 H 0.0 **** 0.41
8770 O 16.445944964130252 25.668194416050824 46.86449798557271 O 0.0 **** -0.82
8771 H 16.700710042604022 26.0536264325674 47.798538528026015 H 0.0 **** 0.41
8772 H 16.09258788834364 26.491259015301097 46.362980471508166 H 0.0 **** 0.41
8773 O 27.135220583807584 33.065871157818286 18.928426377488393 O 0.0 **** -0.82
8774 H 27.44870368548545 32.265168528205386 19.413746784845557 H 0.0 **** 0.41
8775 H 26.337594547708907 33.49302032336063 19.41242684239809 H 0.0 **** 0.41
8776 O 7.433202911493588 12.716393855542842 47.39167006402839 O 0.0 **** -0.82
8777 H 8.379345062144907 13.050583567564695 47.68714009579416 H 0.0 **** 0.41
8778 H 7.509500683584356 12.776908920396918 46.39050186174535 H 0.0 **** 0.41
8779 O 41.474328771331436 44.75729615831941 3.450127576244453 O 0.0 **** -0.82
8780 H 41.19240278454013 43.94679955129479 3.9758977855498383 H 0.0 **** 0.41
8781 H 40.606613427193984 45.26982504247773 3.2378243443046215 H 0.0 **** 0.41
8782 O 48.3168074915598 16.702244755508048 14.448918594246024 O 0.0 **** -0.82
8783 H 48.18216418391718 16.793111898263106 13.4760992032577 H 0.0 **** 0.41
8784 H 48.018619346562524 17.568231058891143 14.905884456294453 H 0.0 **** 0.41
8785 O 17.731969250866694 23.66572085256663 21.719288813807257 O 0.0 **** -0.82
8786 H 16.823361402482377 23.43849051394452 22.078238513533098 H 0.0 **** 0.41
8787 H 17.872093778295206 24.735423757557708 21.644834151661872 H 0.0 **** 0.41
8788 O 24.120676824569827 25.365674115251196 17.710577066394382 O 0.0 **** -0.82
8789 H 24.05674948372568 24.574493419942087 17.05515129251887 H 0.0 **** 0.41
8790 H 24.125243491558734 26.118101854772352 17.011458543699906 H 0.0 **** 0.41
8791 O 32.9112359870399 9.627449420969615 36.14890813668014 O 0.0 **** -0.82
8792 H 32.25587701303698 10.227727650280956 36.71791279646017 H 0.0 **** 0.41
8793 H 32.48460194785807 9.719383783656049 35.1934633748456 H 0.0 **** 0.41
8794 O 1.1809796144952855 41.850903438797445 38.91574480869784 O 0.0 **** -0.82
8795 H 1.6638293228554346 41.0792398960793 38.53106321927299 H 0.0 **** 0.41
8796 H 0.3072938433954562 41.91358565643357 38.354888509976305 H 0.0 **** 0.41
8797 O 17.10245796635732 12.848398570213462 20.94923720507721 O 0.0 **** -0.82
8798 H 17.726662858593045 12.290144984962815 20.406389573059215 H 0.0 **** 0.41
8799 H 17.317008351019183 12.57665211479582 21.869910692014496 H 0.0 **** 0.41
8800 O 23.353439905602396 18.366425505742246 32.91403589014092 O 0.0 **** -0.82
8801 H 23.84224152376678 18.260476490488728 33.7943407958881 H 0.0 **** 0.41
8802 H 22.36961693966862 18.038410020801827 32.9728079923764 H 0.0 **** 0.41
8803 O 18.4233436212673 23.481147916172098 37.16237545548122 O 0.0 **** -0.82
8804 H 18.25285707185747 22.504980762290636 36.8638077041893 H 0.0 **** 0.41
8805 H 17.475589400181445 23.887851856087977 37.34789989346411 H 0.0 **** 0.41
8806 O 12.825946589217317 35.08040459662665 9.534241942283458 O 0.0 **** -0.82
8807 H 12.045037603705415 34.535942082446496 9.8416846785314 H 0.0 **** 0.41
8808 H 13.287020149978286 34.46765848447285 8.81699685304519 H 0.0 **** 0.41
8809 O 17.765175383222527 44.90434172094355 23.958811270293694 O 0.0 **** -0.82
8810 H 17.62085810703826 44.6689865082042 22.96248325517291 H 0.0 **** 0.41
8811 H 18.366192930581633 45.73979828800777 23.935388728548276 H 0.0 **** 0.41
8812 O 49.550752953042675 27.18899718634929 2.2689636914447178 O 0.0 **** -0.82
8813 H 50.472556766256645 27.11404375000368 2.700207267737168 H 0.0 **** 0.41
8814 H 49.42016665260665 26.288772350104118 1.7464663772846838 H 0.0 **** 0.41
8815 O 30.298692722518425 14.578399160413603 13.18071174075942 O 0.0 **** -0.82
8816 H 30.41264128885245 15.526283599006703 12.708029590742257 H 0.0 **** 0.41
8817 H 30.302401745872476 13.943945828782235 12.440309837322033 H 0.0 **** 0.41
8818 O 16.104788691642874 49.75084025418781 28.17529685448259 O 0.0 **** -0.82
8819 H 17.057187788374975 49.68652501299972 28.293526209447364 H 0.0 **** 0.41
8820 H 15.855642028420473 50.094848644270776 29.105715078519573 H 0.0 **** 0.41
8821 O 49.434788716928324 24.02114599730723 9.40692373139509 O 0.0 **** -0.82
8822 H 49.07866957820301 24.468188066232116 10.259595473590721 H 0.0 **** 0.41
8823 H 50.472463783840396 23.912925016781287 9.60069956366386 H 0.0 **** 0.41
8824 O 25.983557207396096 18.068410533847782 43.285952318809045 O 0.0 **** -0.82
8825 H 25.307849599753098 18.45992426056634 43.88658696498066 H 0.0 **** 0.41
8826 H 25.502642613004287 17.12047143036915 43.35773683974376 H 0.0 **** 0.41
8827 O 3.6819353746460806 47.06958593978453 39.81214987608475 O 0.0 **** -0.82
8828 H 2.8413555810927917 46.685326496522265 40.18783844985298 H 0.0 **** 0.41
8829 H 3.4248795476634655 47.74798300898651 39.1366782552087 H 0.0 **** 0.41
8830 O 7.578676493989441 33.83516051606371 42.6218700837803 O 0.0 **** -0.82
8831 H 8.352961243877168 33.717110917895106 43.30594427405445 H 0.0 **** 0.41
8832 H 7.827060235625076 33.508145988020765 41.74319720976344 H 0.0 **** 0.41
8833 O 11.614253400909472 34.89322352185095 31.694009938259057 O 0.0 **** -0.82
8834 H 12.098794747734196 35.749607128334915 31.72365184923897 H 0.0 **** 0.41
8835 H 11.066101963622938 34.85668859970955 30.781656489804682 H 0.0 **** 0.41
8836 O 6.238448611599502 32.41027197951833 16.97416756981808 O 0.0 **** -0.82
8837 H 7.034852736771918 32.790903655223254 16.473705318067356 H 0.0 **** 0.41
8838 H 6.560354452551471 31.643999340976126 17.557391487502894 H 0.0 **** 0.41
8839 O 23.36993189469861 14.87503645056203 2.5225185333666342 O 0.0 **** -0.82
8840 H 22.586312771152677 14.53646767714288 2.9630569235572572 H 0.0 **** 0.41
8841 H 23.323606962990112 15.883633453030692 2.8285575486761387 H 0.0 **** 0.41
8842 O 42.687694821015214 13.41476602590584 10.333373787777653 O 0.0 **** -0.82
8843 H 42.89302215755847 12.552520318811686 9.913752782196603 H 0.0 **** 0.41
8844 H 43.46296772397036 14.020902541468732 10.32339749402962 H 0.0 **** 0.41
8845 O 34.089565195956055 37.28217991586368 44.306819411291116 O 0.0 **** -0.82
8846 H 34.96292145966969 37.07930656618783 43.83208659565898 H 0.0 **** 0.41
8847 H 34.36933025103818 37.358865839535234 45.27150544695898 H 0.0 **** 0.41
8848 O 23.63033795843548 30.08189875334502 47.1365706671607 O 0.0 **** -0.82
8849 H 23.10707093157258 29.58224059559129 47.91960141291058 H 0.0 **** 0.41
8850 H 23.962811356033363 30.96530027277304 47.57743240755651 H 0.0 **** 0.41
8851 O 34.622884950635466 8.84025529079843 38.58456852794254 O 0.0 **** -0.82
8852 H 34.18249465716595 9.518867760290966 39.23823070903975 H 0.0 **** 0.41
8853 H 34.032619512328466 9.087883950989527 37.766334436278385 H 0.0 **** 0.41
8854 O 3.7473182187872536 21.02661968518675 37.208030322503376 O 0.0 **** -0.82
8855 H 2.8008979291668346 21.397646846318914 37.18943804019224 H 0.0 **** 0.41
8856 H 4.026936498453027 20.78515165221243 36.287600715821945 H 0.0 **** 0.41
8857 O 12.450405866017348 2.899057662861217 31.783809552459783 O 0.0 **** -0.82
8858 H 12.242398521821123 1.9231610405272148 31.50599492194929 H 0.0 **** 0.41
8859 H 11.67924803109937 3.130062700523064 32.39131882620161 H 0.0 **** 0.41
8860 O 37.592785958402054 46.1622103386424 21.235290753330162 O 0.0 **** -0.82
8861 H 37.99074891916243 45.907787386999566 20.36541636852277 H 0.0 **** 0.41
8862 H 37.95937127164972 47.090806317898796 21.56551702654838 H 0.0 **** 0.41
8863 O 42.291788877724876 31.83788837107521 20.625703166724712 O 0.0 **** -0.82
8864 H 42.59416353244145 32.046618593086066 19.624687802432682 H 0.0 **** 0.41
8865 H 43.0913452124162 31.39821501702816 21.049376605413627 H 0.0 **** 0.41
8866 O 37.0251220091778 8.569080873762587 48.22228242531512 O 0.0 **** -0.82
8867 H 36.201144909711154 8.41651901429156 47.596242189511734 H 0.0 **** 0.41
8868 H 36.74419362856189 8.07181182811707 49.08194300709659 H 0.0 **** 0.41
8869 O 7.291702947705319 12.401864640334997 12.01818433176225 O 0.0 **** -0.82
8870 H 7.340152859048131 11.434044923012262 11.573979478257872 H 0.0 **** 0.41
8871 H 8.279768911753193 12.595616279019472 12.153922324560442 H 0.0 **** 0.41
8872 O 3.4572157444967493 22.12058861704774 14.93014750654919 O 0.0 **** -0.82
8873 H 4.274186831461115 21.726202199962568 15.375825960458215 H 0.0 **** 0.41
8874 H 3.55130684642678 21.694959789433216 14.013427379769169 H 0.0 **** 0.41
8875 O 28.733552866266646 3.7110333303935805 30.1862021973678 O 0.0 **** -0.82
8876 H 28.9431606091902 3.369719225592575 31.13239721626095 H 0.0 **** 0.41
8877 H 29.329861409917722 3.268546534264843 29.469546945582742 H 0.0 **** 0.41
8878 O 2.8553585280165827 43.034668611029495 40.673467668282825 O 0.0 **** -0.82
8879 H 2.1718125199851133 42.75162110142442 39.989008915174736 H 0.0 **** 0.41
8880 H 2.5456935386355415 44.00671418939667 40.776415601903814 H 0.0 **** 0.41
8881 O 40.18421791235102 6.9572075712951715 28.98446958567405 O 0.0 **** -0.82
8882 H 39.39920801516175 7.529016700556811 29.264044183869345 H 0.0 **** 0.41
8883 H 40.528901073731575 6.632210959057018 29.88807618241421 H 0.0 **** 0.41
8884 O 38.42824084630703 42.6448205441971 17.47961749425812 O 0.0 **** -0.82
8885 H 38.66081052527201 43.43230680413031 16.861349322970632 H 0.0 **** 0.41
8886 H 37.88343524298613 41.932811399588765 16.919252502164312 H 0.0 **** 0.41
8887 O 3.0377133349469427 8.15919854138719 6.028677739758326 O 0.0 **** -0.82
8888 H 2.672263521016352 7.284176142285215 6.189003434396202 H 0.0 **** 0.41
8889 H 4.02747739510331 8.065635940729429 5.860209250793238 H 0.0 **** 0.41
8890 O 29.043616518296695 25.468795580780775 28.899720906225834 O 0.0 **** -0.82
8891 H 29.74355608284915 26.176417683262766 28.670388741869147 H 0.0 **** 0.41
8892 H 28.25572645607685 25.967416212393523 29.23984266441724 H 0.0 **** 0.41
8893 O 36.11596967340221 11.976138129621162 28.749834386235694 O 0.0 **** -0.82
8894 H 36.41639968973176 12.487034666953718 29.66715400181837 H 0.0 **** 0.41
8895 H 35.2374449811096 12.501572611582176 28.518381265310722 H 0.0 **** 0.41
8896 O 15.449901916837531 49.256047747321965 20.223893135242903 O 0.0 **** -0.82
8897 H 15.510917646634903 50.17537333711142 19.847114267249026 H 0.0 **** 0.41
8898 H 16.205451826049963 48.696160613043574 19.752680840120263 H 0.0 **** 0.41
8899 O 15.452955608755602 48.51298401517561 25.210498187581255 O 0.0 **** -0.82
8900 H 14.569406833831067 48.66051187923897 25.733180354299304 H 0.0 **** 0.41
8901 H 16.15580494800941 48.41326478474365 25.938637897723957 H 0.0 **** 0.41
8902 O 36.633295502102044 37.01040808838794 0.16961800748863243 O 0.0 **** -0.82
8903 H 36.65986949205845 36.585542377932185 1.1584218628013945 H 0.0 **** 0.41
8904 H 35.877278399039 36.50283388201622 -0.25730636298926157 H 0.0 **** 0.41
8905 O 44.58616818417569 41.11456914160113 47.48717821931757 O 0.0 **** -0.82
8906 H 44.25017583662231 41.94631700697442 48.03153282227621 H 0.0 **** 0.41
8907 H 43.77409030770527 40.720607613321526 47.10412601514238 H 0.0 **** 0.41
8908 O 5.024446672561332 41.367608048200914 40.35528360184893 O 0.0 **** -0.82
8909 H 4.1653344310375005 41.88912746823127 40.344386342713676 H 0.0 **** 0.41
8910 H 5.462693714949566 41.545129494645046 39.43514522597887 H 0.0 **** 0.41
8911 O 22.86929727051597 3.211070750807202 0.042438536223841083 O 0.0 **** -0.82
8912 H 22.916469819842447 4.191735387550866 -0.24498437855286426 H 0.0 **** 0.41
8913 H 23.756199540031016 3.077483777597977 0.44500800802758533 H 0.0 **** 0.41
8914 O 10.708707574505674 47.29838337252143 47.55652184738812 O 0.0 **** -0.82
8915 H 11.164905666409675 48.22898372910981 47.4828264717634 H 0.0 **** 0.41
8916 H 9.86749777302794 47.31160268910899 46.97220700346279 H 0.0 **** 0.41
8917 O 39.58995517744878 18.212686276067462 26.64555522797047 O 0.0 **** -0.82
8918 H 38.85250115822986 18.690683863141228 26.10558288462938 H 0.0 **** 0.41
8919 H 39.17972972848336 18.04158505806772 27.530119389203644 H 0.0 **** 0.41
8920 O 9.221933294325439 6.2520430879336475 16.480295003822647 O 0.0 **** -0.82
8921 H 8.895388244999918 6.601233085061941 15.602180860756844 H 0.0 **** 0.41
8922 H 10.172735280826233 6.590006945453698 16.394075601054126 H 0.0 **** 0.41
8923 O 46.934845380936046 18.889554852121094 45.828308647801826 O 0.0 **** -0.82
8924 H 46.472256259185436 19.708698639836744 45.38372888202021 H 0.0 **** 0.41
8925 H 47.86487086269709 18.86864919991975 45.54192793375557 H 0.0 **** 0.41
8926 O 48.364287490932846 45.20669786704417 19.939074940300245 O 0.0 **** -0.82
8927 H 48.28537126992363 46.21121077185922 19.672676371845412 H 0.0 **** 0.41
8928 H 49.349416641729746 44.99615490868253 20.090525450025 H 0.0 **** 0.41
8929 O 10.952891286837797 32.60765414186432 33.25904545751483 O 0.0 **** -0.82
8930 H 11.828873268470417 32.12441026211024 33.06442651959122 H 0.0 **** 0.41
8931 H 11.122536051330904 33.56878867149726 32.962604788711445 H 0.0 **** 0.41
8932 O 34.25298095635127 17.73737786075619 32.68197170433319 O 0.0 **** -0.82
8933 H 34.359564174130924 18.726285826759945 32.60527716965455 H 0.0 **** 0.41
8934 H 33.337389423103616 17.606663479473887 33.12259302869677 H 0.0 **** 0.41
8935 O 30.04926311801822 13.734050400290672 44.340499943833116 O 0.0 **** -0.82
8936 H 29.959447064141454 13.119920452466143 45.192810716696385 H 0.0 **** 0.41
8937 H 30.908233500619644 14.201493679626836 44.43874559952208 H 0.0 **** 0.41
8938 O 25.701798388925994 21.08335486488688 42.01007682273738 O 0.0 **** -0.82
8939 H 25.684615160325038 21.52408868232248 42.927085351681136 H 0.0 **** 0.41
8940 H 26.049784302886067 20.082292582537644 42.145153131577736 H 0.0 **** 0.41
8941 O 35.30478774860721 21.339205789026188 1.6039621819812817 O 0.0 **** -0.82
8942 H 35.776251242578326 21.08140911037372 0.7589979382022133 H 0.0 **** 0.41
8943 H 35.99289017372291 21.574549483570088 2.234601724884012 H 0.0 **** 0.41
8944 O 14.513511381421594 41.755830584319526 8.643562803234612 O 0.0 **** -0.82
8945 H 14.567759886656491 41.74057128520083 7.564923391427625 H 0.0 **** 0.41
8946 H 14.60686000003448 40.821516435437445 8.996784459851018 H 0.0 **** 0.41
8947 O 23.439015375773224 17.939070641950742 10.507951057336973 O 0.0 **** -0.82
8948 H 23.093608075028538 17.104001239662693 10.988591993985866 H 0.0 **** 0.41
8949 H 23.37616725617402 18.78156564398292 11.122361267406504 H 0.0 **** 0.41
8950 O 35.81968877846148 7.466460332065913 9.61344636461027 O 0.0 **** -0.82
8951 H 35.59520664177168 7.772085384049117 10.554039959230677 H 0.0 **** 0.41
8952 H 35.27920268450766 6.678012766111349 9.345602172596147 H 0.0 **** 0.41
8953 O 36.91086320463941 28.55349010752374 23.58928732708415 O 0.0 **** -0.82
8954 H 36.11469780209933 28.493474313998487 24.231648499199757 H 0.0 **** 0.41
8955 H 37.46139523132206 29.322048238107293 24.009348277732933 H 0.0 **** 0.41
8956 O 11.647368133724456 12.413982352305345 49.33498255245654 O 0.0 **** -0.82
8957 H 12.333473504285863 11.690318736754376 49.23294273708849 H 0.0 **** 0.41
8958 H 11.005437863724858 12.238205220676742 50.08752112688647 H 0.0 **** 0.41
8959 O 22.601053037359836 29.220411712662237 8.26773694946665 O 0.0 **** -0.82
8960 H 23.564669481619838 28.931804383201875 8.269665521559848 H 0.0 **** 0.41
8961 H 22.46312624980425 29.854682013975335 8.999809117605693 H 0.0 **** 0.41
8962 O 9.56536924597237 22.630958028776927 0.5674082368787978 O 0.0 **** -0.82
8963 H 8.895137638706345 22.899326920379867 -0.14815305701891646 H 0.0 **** 0.41
8964 H 9.647930883670348 21.60012583723514 0.4536845835371466 H 0.0 **** 0.41
8965 O 42.96288177303937 12.853145015098935 16.377786274605274 O 0.0 **** -0.82
8966 H 42.27065862528908 13.424477945896452 16.012132700638343 H 0.0 **** 0.41
8967 H 43.66552176059889 12.96650886171399 15.649536459712337 H 0.0 **** 0.41
8968 O 34.27390774373562 20.408300616809953 47.223231226526906 O 0.0 **** -0.82
8969 H 34.062391392307006 21.221028559158867 47.79527930718679 H 0.0 **** 0.41
8970 H 34.60354393371219 20.79709338105259 46.341049247950835 H 0.0 **** 0.41
8971 O 9.646318218170308 17.844779423524127 5.14722088978989 O 0.0 **** -0.82
8972 H 10.208477738369565 17.293356541903584 5.77725381464341 H 0.0 **** 0.41
8973 H 9.134281988615912 18.494237942504395 5.798009393382729 H 0.0 **** 0.41
8974 O 9.164874624473654 23.22334096128199 36.01904689480748 O 0.0 **** -0.82
8975 H 9.399077601109894 24.10013943519452 36.47438177801225 H 0.0 **** 0.41
8976 H 8.565194501904742 23.554880057760258 35.24527614406634 H 0.0 **** 0.41
8977 O 42.97943866475598 10.932473561836758 28.78073572627397 O 0.0 **** -0.82
8978 H 43.49996381726039 11.388935425943387 28.032821880711346 H 0.0 **** 0.41
8979 H 42.63449123920603 10.069620007295157 28.47197518224683 H 0.0 **** 0.41
8980 O 1.736152213684484 31.44656360637694 41.22864758512129 O 0.0 **** -0.82
8981 H 2.6067283601691003 31.372546622749198 41.70240953656143 H 0.0 **** 0.41
8982 H 1.725869898709547 30.937234828437937 40.381033471942246 H 0.0 **** 0.41
8983 O 30.58686725970358 27.291051982848995 12.302741341258903 O 0.0 **** -0.82
8984 H 30.15073123186572 27.664771219117092 13.152697733193705 H 0.0 **** 0.41
8985 H 30.586680857742646 27.979846747295348 11.549468303098507 H 0.0 **** 0.41
8986 O 21.003065211714404 47.924059922751184 5.480586142161097 O 0.0 **** -0.82
8987 H 20.462975808433256 47.451823308385826 4.749459020382763 H 0.0 **** 0.41
8988 H 20.29745623612855 48.58491860357612 5.884040360869205 H 0.0 **** 0.41
8989 O 47.97341880695393 30.379376806636525 36.220436758424036 O 0.0 **** -0.82
8990 H 47.17924473560598 29.785838511075195 36.39177983535385 H 0.0 **** 0.41
8991 H 48.596575228511895 29.654217835058738 35.86716637926817 H 0.0 **** 0.41
8992 O 7.907952222625743 20.098254701816728 37.086798023368644 O 0.0 **** -0.82
8993 H 7.596601417098627 21.037899378932536 37.006448179636465 H 0.0 **** 0.41
8994 H 8.08241069788409 19.73065174618971 36.199049873463316 H 0.0 **** 0.41
8995 O 16.57463647802949 14.436618153603282 24.43529663839979 O 0.0 **** -0.82
8996 H 16.12411081225274 14.013542003437767 23.585776238669638 H 0.0 **** 0.41
8997 H 17.519958403771355 14.025408328678015 24.472968154555346 H 0.0 **** 0.41
8998 O 23.970125088664403 21.848440603027278 36.19847224138575 O 0.0 **** -0.82
8999 H 24.635436968378762 21.612614283744144 35.483725029556425 H 0.0 **** 0.41
9000 H 24.16814433744683 21.064015684813295 36.82728577347117 H 0.0 **** 0.41
9001 O 27.2293428637129 24.808457462244434 14.00934872050389 O 0.0 **** -0.82
9002 H 26.215873840060937 24.756751042119078 14.03210810816694 H 0.0 **** 0.41
9003 H 27.338816967253294 24.256635252477267 13.135011665605608 H 0.0 **** 0.41
9004 O 5.378243834639008 16.835202167667745 12.7418717743289 O 0.0 **** -0.82
9005 H 5.868924197097272 17.708996602774334 12.568713479136846 H 0.0 **** 0.41
9006 H 4.5055756304700765 17.03541879485894 12.328293993194237 H 0.0 **** 0.41
9007 O 8.675890936629918 23.65699158929658 8.453919644613226 O 0.0 **** -0.82
9008 H 7.8229739599671415 24.162968214653905 8.128754292429782 H 0.0 **** 0.41
9009 H 8.76810163436156 23.886094802802628 9.430642604838296 H 0.0 **** 0.41
9010 O 29.483920655089086 6.372477927669886 3.9953735508518227 O 0.0 **** -0.82
9011 H 29.677456144824593 5.6253088834907485 4.6855224090128695 H 0.0 **** 0.41
9012 H 30.321755083448245 6.389161341385551 3.479860136505089 H 0.0 **** 0.41
9013 O 29.287975968555894 0.14396964754062935 7.829099206468214 O 0.0 **** -0.82
9014 H 29.14258663546775 1.0346598035280081 8.212429020901073 H 0.0 **** 0.41
9015 H 29.747041542990868 0.29299157502370576 6.921334907658642 H 0.0 **** 0.41
9016 O 3.982402021147459 13.68092847482098 36.562556952192764 O 0.0 **** -0.82
9017 H 4.834568321067441 13.41688229841526 36.13147001666227 H 0.0 **** 0.41
9018 H 3.9834007644032723 13.00912569692246 37.359546342755685 H 0.0 **** 0.41
9019 O 36.53532841963029 5.041368802417892 7.636584936808163 O 0.0 **** -0.82
9020 H 36.917960254018325 5.803246908458178 7.028770557801849 H 0.0 **** 0.41
9021 H 37.3561730986304 4.823853304469807 8.187116480084867 H 0.0 **** 0.41
9022 O 8.662139458415021 24.928094187073906 14.194155949767293 O 0.0 **** -0.82
9023 H 9.052764613065673 24.1298722909747 14.642583924437304 H 0.0 **** 0.41
9024 H 9.183542179113461 25.734535135971544 14.531072620270933 H 0.0 **** 0.41
9025 O 7.389866607069098 10.301440641949647 10.264309036634799 O 0.0 **** -0.82
9026 H 6.965466092509937 10.408861780104374 9.368091123693418 H 0.0 **** 0.41
9027 H 6.930881555764541 9.456390058326114 10.61520476696819 H 0.0 **** 0.41
9028 O 6.84474220421637 20.302922753796025 11.188639772953895 O 0.0 **** -0.82
9029 H 6.197020946684757 21.08416550085121 11.105540896281912 H 0.0 **** 0.41
9030 H 6.769042637496631 19.847599012725382 10.271036707261382 H 0.0 **** 0.41
9031 O 39.58592355463036 26.323802212589214 25.468406063324295 O 0.0 **** -0.82
9032 H 38.953211612355304 27.025507646055686 25.652020530025737 H 0.0 **** 0.41
9033 H 39.55137922375345 25.769226031800503 26.292272191889666 H 0.0 **** 0.41
9034 O 8.291350916253343 17.56262693867809 26.70709880060266 O 0.0 **** -0.82
9035 H 7.50486743996089 17.38552556033235 26.14962694937718 H 0.0 **** 0.41
9036 H 9.1217699065987 17.65110659379335 26.12456347545174 H 0.0 **** 0.41
9037 O 15.433414691246176 24.602180665622523 43.03580543501636 O 0.0 **** -0.82
9038 H 14.8865628893327 24.228032288828917 43.81721453000448 H 0.0 **** 0.41
9039 H 15.202011336775282 25.57991156751721 43.00043954360262 H 0.0 **** 0.41
9040 O 15.045410585296324 37.87426391620748 29.932945236331825 O 0.0 **** -0.82
9041 H 15.672069216697864 37.07487067646569 30.09881504767775 H 0.0 **** 0.41
9042 H 15.669619531083583 38.692131796303165 29.97815089166446 H 0.0 **** 0.41
9043 O 43.314368849613054 21.706428561522923 32.79461710333985 O 0.0 **** -0.82
9044 H 42.531716826680416 21.198167853520612 32.46297836274422 H 0.0 **** 0.41
9045 H 43.01323502415885 22.605752081256064 32.44269712465465 H 0.0 **** 0.41
9046 O 22.553020100004872 43.98154486918123 40.90644896953882 O 0.0 **** -0.82
9047 H 23.539232826241317 44.006171092606806 41.03982803142691 H 0.0 **** 0.41
9048 H 22.13978475828752 43.26039775255093 41.56257695238077 H 0.0 **** 0.41
9049 O 35.48357036111385 2.0030822562078754 21.853428393961078 O 0.0 **** -0.82
9050 H 35.46006466360454 2.9675937550409586 22.0524058898101 H 0.0 **** 0.41
9051 H 34.60633204471883 1.756598700196605 21.516579652596135 H 0.0 **** 0.41
9052 O 2.769827747916885 18.16725766575546 27.026154796125738 O 0.0 **** -0.82
9053 H 2.437273011200972 17.35859835127146 26.585656762396383 H 0.0 **** 0.41
9054 H 2.7812631532835184 17.99801725291483 27.9948690576022 H 0.0 **** 0.41
9055 O 6.903667569494674 1.2589904388001913 24.955651822668855 O 0.0 **** -0.82
9056 H 7.823968369705013 1.2151567125956886 25.408137981179628 H 0.0 **** 0.41
9057 H 6.760603397345426 2.213277547566897 24.590079708061584 H 0.0 **** 0.41
9058 O 27.909930843047793 18.81633106341564 26.92056121843194 O 0.0 **** -0.82
9059 H 27.969531256507665 19.294296956624716 27.756438849319803 H 0.0 **** 0.41
9060 H 28.245047147553127 17.905250297471003 27.231857716442548 H 0.0 **** 0.41
9061 O 7.990916594565267 13.86299842394989 38.580362091048144 O 0.0 **** -0.82
9062 H 7.826796017296291 14.64108233179357 37.901538227833086 H 0.0 **** 0.41
9063 H 9.005506604658844 13.974065679444571 38.74976727900773 H 0.0 **** 0.41
9064 O 20.827887434191542 24.528623532060198 35.68112584982156 O 0.0 **** -0.82
9065 H 20.570408919639796 25.473328251222394 35.85498335813234 H 0.0 **** 0.41
9066 H 20.10710007567529 24.01051044858425 36.14270545384529 H 0.0 **** 0.41
9067 O 39.327042777310766 37.10554107698267 42.74134398588711 O 0.0 **** -0.82
9068 H 38.75431527500243 37.91755001873927 42.97573094935751 H 0.0 **** 0.41
9069 H 38.90464779256374 36.67569741680117 41.927622942407865 H 0.0 **** 0.41
9070 O 28.134948280903792 21.966107708648792 45.380587093210664 O 0.0 **** -0.82
9071 H 28.532637155537337 21.102189166019883 45.741273254594624 H 0.0 **** 0.41
9072 H 28.9429817646563 22.562673004943363 45.391056790922995 H 0.0 **** 0.41
9073 O 5.197572121234068 9.079630815418692 11.581466373528144 O 0.0 **** -0.82
9074 H 4.838760044561004 9.96866697482469 11.794929824599848 H 0.0 **** 0.41
9075 H 4.9160668737796325 8.4264274764739 12.327758472803467 H 0.0 **** 0.41
9076 O 45.643365297437754 7.314261403303775 43.194635471408446 O 0.0 **** -0.82
9077 H 45.705276839328135 8.228770918002786 42.735741165487966 H 0.0 **** 0.41
9078 H 46.38041105527115 6.6722052043475735 42.87655025176029 H 0.0 **** 0.41
9079 O 20.450363106699125 17.909026336031445 43.30092934052957 O 0.0 **** -0.82
9080 H 20.13346591443998 17.63968504504595 44.21490121365142 H 0.0 **** 0.41
9081 H 19.800452202669426 18.688061127493967 43.05387749729683 H 0.0 **** 0.41
9082 O 35.260240077905095 32.306465469155484 36.334124073023965 O 0.0 **** -0.82
9083 H 35.82677235274923 32.31382915917638 35.47343732383457 H 0.0 **** 0.41
9084 H 35.69260876551237 31.71514470506891 37.030231557168854 H 0.0 **** 0.41
9085 O 22.99276816566244 37.27503564364664 8.122740458212014 O 0.0 **** -0.82
9086 H 22.946581397872478 38.283741451717425 8.27655361598633 H 0.0 **** 0.41
9087 H 22.53733464724119 36.87822673801081 8.933188955893797 H 0.0 **** 0.41
9088 O 30.327495487293277 46.171748472965234 42.761338961038845 O 0.0 **** -0.82
9089 H 29.67372095843767 45.3784285766393 42.79029366289176 H 0.0 **** 0.41
9090 H 30.657359939753434 46.11934698470689 43.7290481930904 H 0.0 **** 0.41
9091 O 32.08126897031101 40.69606150671645 38.29629483581166 O 0.0 **** -0.82
9092 H 32.83685900969642 40.95306753316565 38.87655694629457 H 0.0 **** 0.41
9093 H 32.257917810787774 40.09163492803718 37.5092123483477 H 0.0 **** 0.41
9094 O 31.881227173212576 28.88279472828885 36.41958554668381 O 0.0 **** -0.82
9095 H 31.216557024490932 28.6134156894967 35.74266997972823 H 0.0 **** 0.41
9096 H 31.380520483244695 29.586849074229338 36.982693388193276 H 0.0 **** 0.41
9097 O 20.90889051610439 45.70674996259864 42.03330590026409 O 0.0 **** -0.82
9098 H 21.166943747535214 46.40230003522101 41.30503915696935 H 0.0 **** 0.41
9099 H 21.56116034758414 45.02733474380808 41.82365085932905 H 0.0 **** 0.41
9100 O 33.58327700040822 44.727866345887264 44.98228262864669 O 0.0 **** -0.82
9101 H 34.53649531603109 44.65801115390019 45.369030606186435 H 0.0 **** 0.41
9102 H 33.65573753574486 45.52581085105884 44.302705019059566 H 0.0 **** 0.41
9103 O 23.393333014538577 20.80469295614373 15.189802323898165 O 0.0 **** -0.82
9104 H 23.845726959854296 20.114033462474183 15.838096522387938 H 0.0 **** 0.41
9105 H 22.436858994430654 20.8672628232411 15.489176435748288 H 0.0 **** 0.41
9106 O 29.177519987535643 4.403804236411368 41.94660598680314 O 0.0 **** -0.82
9107 H 29.626680624206504 3.5594117292069143 42.31186261475627 H 0.0 **** 0.41
9108 H 28.190387247528903 4.257786948148521 41.72895891101323 H 0.0 **** 0.41
9109 O 20.784597961792947 20.169000262305975 34.41371149344977 O 0.0 **** -0.82
9110 H 20.72207224672943 19.24244998789597 34.014097424317235 H 0.0 **** 0.41
9111 H 21.78723567665725 20.31559071945675 34.411206570007074 H 0.0 **** 0.41
9112 O 46.344591765129316 40.762258979788825 4.5105162265408865 O 0.0 **** -0.82
9113 H 46.20450152455084 41.3864819331911 3.746307416010346 H 0.0 **** 0.41
9114 H 45.39946186225611 40.64115106594072 4.895713334690221 H 0.0 **** 0.41
9115 O 20.37766908810009 38.59151325492181 6.505412711436473 O 0.0 **** -0.82
9116 H 20.437252731860454 38.65366538134846 7.507576292658586 H 0.0 **** 0.41
9117 H 19.435823348521723 38.45529106656375 6.2329705056119815 H 0.0 **** 0.41
9118 O 3.6558627144802642 30.421174970263333 26.95360540643696 O 0.0 **** -0.82
9119 H 3.079560273823951 31.073432411622374 26.415737954662365 H 0.0 **** 0.41
9120 H 4.226670961882007 30.956782429671094 27.57003331068804 H 0.0 **** 0.41
9121 O 32.99507296765295 19.12953314589684 39.41199134818434 O 0.0 **** -0.82
9122 H 32.33748220315317 18.363107508357434 39.320112166610045 H 0.0 **** 0.41
9123 H 32.92477420002675 19.70858897238729 38.58979206906344 H 0.0 **** 0.41
9124 O 1.7342807067768164 13.187788219499117 1.6972717478699835 O 0.0 **** -0.82
9125 H 1.5335416440735425 12.794389879095107 0.7411768297268893 H 0.0 **** 0.41
9126 H 1.531533884088022 14.161643387354125 1.6948002212414366 H 0.0 **** 0.41
9127 O 23.198960136808655 12.11756555232704 14.230201043827122 O 0.0 **** -0.82
9128 H 23.336211773758443 12.851899703234789 14.866957903085236 H 0.0 **** 0.41
9129 H 23.56867504916465 11.248928361740935 14.572979654126215 H 0.0 **** 0.41
9130 O 21.41756538961771 41.10869691385235 36.525375478575434 O 0.0 **** -0.82
9131 H 21.47504642704624 41.89768714623617 37.20641755602459 H 0.0 **** 0.41
9132 H 22.29451103993167 41.22148126056738 36.00107810120458 H 0.0 **** 0.41
9133 O 13.845630586975306 11.781667277652232 3.0232752189033434 O 0.0 **** -0.82
9134 H 14.683691166713977 12.09377408499273 2.5558238200010934 H 0.0 **** 0.41
9135 H 14.10138349202746 10.927533861148703 3.5239121367761714 H 0.0 **** 0.41
9136 O 6.5227769420641355 35.39789170262691 28.139880900415328 O 0.0 **** -0.82
9137 H 5.958972984032823 34.64163333438234 27.750927299201997 H 0.0 **** 0.41
9138 H 7.120415099305128 34.925649159186314 28.750765359517956 H 0.0 **** 0.41
9139 O 3.808824844328492 24.781124812549738 34.79176423882891 O 0.0 **** -0.82
9140 H 4.122330949071202 24.753031500604344 35.748860761789366 H 0.0 **** 0.41
9141 H 4.286030062915401 24.121958307202924 34.19876690554794 H 0.0 **** 0.41
9142 O 35.06538892403026 1.873759639394109 40.360073507402404 O 0.0 **** -0.82
9143 H 35.199456930299306 1.8306257564581045 41.353330071718176 H 0.0 **** 0.41
9144 H 35.13437974974599 2.8829224854299085 40.174012894015036 H 0.0 **** 0.41
9145 O 5.304800812902556 30.462446907802846 34.79434715262615 O 0.0 **** -0.82
9146 H 4.802552326639692 30.94671330885735 34.08521097446992 H 0.0 **** 0.41
9147 H 5.74905476610531 31.213014394222874 35.34362084269314 H 0.0 **** 0.41
9148 O 23.760133003313662 42.54613969577067 15.407609455001804 O 0.0 **** -0.82
9149 H 23.271176183692173 42.049248204991834 16.116309068635587 H 0.0 **** 0.41
9150 H 24.73491254422233 42.60644733947811 15.632376068036557 H 0.0 **** 0.41
9151 O 17.23593771573733 41.03749473633238 27.10124804930406 O 0.0 **** -0.82
9152 H 17.179420920977506 42.033402124601366 27.070145721046018 H 0.0 **** 0.41
9153 H 16.67290473772725 40.73480317425831 26.290190955750433 H 0.0 **** 0.41
9154 O 37.4499997577769 13.674460629590655 33.753371200875534 O 0.0 **** -0.82
9155 H 37.29720500779729 14.614664776203256 33.580004720403934 H 0.0 **** 0.41
9156 H 38.422127833625396 13.609813012871548 33.43164002797354 H 0.0 **** 0.41
9157 O 28.715597042220594 40.205926204479546 19.05141365960358 O 0.0 **** -0.82
9158 H 28.76911169330235 40.43861637739349 20.044896195698122 H 0.0 **** 0.41
9159 H 29.225530551063144 39.36979052650146 18.81599330958823 H 0.0 **** 0.41
9160 O 42.62935362983382 42.908994244233426 26.0273974475652 O 0.0 **** -0.82
9161 H 43.21105180972917 43.78407275376401 25.893707610689564 H 0.0 **** 0.41
9162 H 41.864620142587405 43.33910084950335 26.52854811499161 H 0.0 **** 0.41
9163 O 44.14080670266368 19.95460574032353 14.988651587418055 O 0.0 **** -0.82
9164 H 43.40629141577127 19.94159717937839 15.751946636477285 H 0.0 **** 0.41
9165 H 43.96727108813794 20.838119810052746 14.562194024612744 H 0.0 **** 0.41
9166 O 42.89704616150963 16.096340311810078 3.8225179530356996 O 0.0 **** -0.82
9167 H 42.928024818941104 15.498442612261316 4.66100132683529 H 0.0 **** 0.41
9168 H 42.10896122981909 15.955525537184727 3.159325801851324 H 0.0 **** 0.41
9169 O 27.576135026810192 35.00418287297972 49.59663648349076 O 0.0 **** -0.82
9170 H 27.17308554424849 34.38305342174821 50.302657403163266 H 0.0 **** 0.41
9171 H 28.549366744667502 35.11043837770295 49.99330666698593 H 0.0 **** 0.41
9172 O 5.913682728298587 2.1907191483702726 3.213707067663208 O 0.0 **** -0.82
9173 H 6.836247409724567 2.4364929487328695 2.890069495118354 H 0.0 **** 0.41
9174 H 5.561019297712556 1.692015182631744 2.3777568140189658 H 0.0 **** 0.41
9175 O 45.98063915482826 5.912488923181201 10.16948058977112 O 0.0 **** -0.82
9176 H 46.17462775097141 5.772570002528106 9.18717385404016 H 0.0 **** 0.41
9177 H 46.80754006735665 5.482330842265128 10.56788718337333 H 0.0 **** 0.41
9178 O 24.92312531512732 19.183924782882542 38.49669370099284 O 0.0 **** -0.82
9179 H 24.89315758931831 18.259178331857562 38.86198321821185 H 0.0 **** 0.41
9180 H 24.59352194629412 19.804697489457894 39.21963092683514 H 0.0 **** 0.41
9181 O 15.501593473854458 11.597393282046841 39.47429270819604 O 0.0 **** -0.82
9182 H 15.326891377160516 11.570225033267956 40.49378218696933 H 0.0 **** 0.41
9183 H 16.226096827122642 10.89423329809855 39.236435204286835 H 0.0 **** 0.41
9184 O 3.4358204433561212 5.080922046835486 6.181957523853512 O 0.0 **** -0.82
9185 H 4.011036405787905 5.694203816131868 5.6205676934914095 H 0.0 **** 0.41
9186 H 3.9167318617544495 4.842786952327565 7.069476171792559 H 0.0 **** 0.41
9187 O 42.77785344332782 28.430456442903346 25.402417466485954 O 0.0 **** -0.82
9188 H 42.41149665557918 29.364808054726318 25.237369909426167 H 0.0 **** 0.41
9189 H 42.07759310816284 27.756855831325502 25.75095584155483 H 0.0 **** 0.41
9190 O 21.577815499009812 19.347773113546392 20.818743317987472 O 0.0 **** -0.82
9191 H 22.059288213728863 18.58347860605974 21.323153318542474 H 0.0 **** 0.41
9192 H 22.424436452084965 19.882558574901363 20.545103822286283 H 0.0 **** 0.41
9193 O 39.02631570127449 19.87620604798675 22.478566288473722 O 0.0 **** -0.82
9194 H 38.70805374946463 18.933907640422344 22.153645360295695 H 0.0 **** 0.41
9195 H 38.650463677338294 20.08876250642841 23.411508125874484 H 0.0 **** 0.41
9196 O 23.727302277173838 9.671631347090797 24.222891571397014 O 0.0 **** -0.82
9197 H 23.617220088592667 8.992072342383073 24.927527794173386 H 0.0 **** 0.41
9198 H 23.109169575366703 9.50893149182257 23.45456854677144 H 0.0 **** 0.41
9199 O 27.13450566856273 34.614458492017256 38.221424448410744 O 0.0 **** -0.82
9200 H 27.981873646873368 34.729262516898864 38.85130764695758 H 0.0 **** 0.41
9201 H 27.4444009312845 34.18128733907496 37.373011845793776 H 0.0 **** 0.41
9202 O 17.405137631983692 34.36468573796141 20.472346238578474 O 0.0 **** -0.82
9203 H 17.356808299175654 34.2811708594019 19.413180503735592 H 0.0 **** 0.41
9204 H 17.99028746220415 33.53469722854534 20.574674918024424 H 0.0 **** 0.41
9205 O 1.1390463069177235 49.862901961009065 5.9873873025267095 O 0.0 **** -0.82
9206 H 0.5914196597083943 50.55779833375889 5.505200331982343 H 0.0 **** 0.41
9207 H 1.9364989003592605 49.728897654713144 5.3579340619823075 H 0.0 **** 0.41
9208 O 26.527696405661903 27.29323587045025 10.546958618108878 O 0.0 **** -0.82
9209 H 26.197984719416237 26.321301076024735 10.536756487488978 H 0.0 **** 0.41
9210 H 26.56709766865836 27.473063225502464 11.572211787791547 H 0.0 **** 0.41
9211 O 12.423937526896665 49.955696484833254 27.054510890599772 O 0.0 **** -0.82
9212 H 13.090463640068705 50.701663034269906 26.85493736627626 H 0.0 **** 0.41
9213 H 12.76370212624289 49.4959197457708 27.879883147431187 H 0.0 **** 0.41
9214 O 1.7607485493785555 0.4869192573366132 23.928606900467116 O 0.0 **** -0.82
9215 H 2.214491854249178 -0.4253872324697241 24.04007951770231 H 0.0 **** 0.41
9216 H 1.4342858885584215 0.3711023281488285 22.976525851951052 H 0.0 **** 0.41
9217 O 35.372252411143315 10.972802768554825 35.76477239303936 O 0.0 **** -0.82
9218 H 35.43555172273378 11.039482333701873 34.772143738972666 H 0.0 **** 0.41
9219 H 34.553771604432754 10.374158507256995 35.96969254135158 H 0.0 **** 0.41
9220 O 42.89741186880531 23.985999300234575 41.553032157259665 O 0.0 **** -0.82
9221 H 43.282663815125325 23.39513185833276 40.8335966898906 H 0.0 **** 0.41
9222 H 42.39231114097614 23.450039522007753 42.308290014500145 H 0.0 **** 0.41
9223 O 40.664897454126184 0.9005334891117305 4.360768921079952 O 0.0 **** -0.82
9224 H 41.32924189809237 1.6247534504433558 4.362086838916198 H 0.0 **** 0.41
9225 H 40.376827949400415 0.7098430521328405 3.4039732300901946 H 0.0 **** 0.41
9226 O 36.251361412675195 32.84158915082463 18.388242095751547 O 0.0 **** -0.82
9227 H 35.569267323358844 32.06102243327334 18.183202627634675 H 0.0 **** 0.41
9228 H 36.75032069876384 33.110206986234296 17.545892706479023 H 0.0 **** 0.41
9229 O 49.923256393226815 46.62965951149304 26.84555549031208 O 0.0 **** -0.82
9230 H 50.45916834105174 45.78414326199323 26.78776298601167 H 0.0 **** 0.41
9231 H 50.403878956892946 47.208133553703576 27.52139925517497 H 0.0 **** 0.41
9232 O 47.87402587376317 40.99869456109349 32.8200717124199 O 0.0 **** -0.82
9233 H 47.05970649190127 41.60727387624914 32.76983424831571 H 0.0 **** 0.41
9234 H 48.48039112580352 41.36443274082427 33.561883700390254 H 0.0 **** 0.41
9235 O 12.9450009528279 20.79651080993064 33.703372241044335 O 0.0 **** -0.82
9236 H 12.958196387167526 20.029722839030356 33.03548329636075 H 0.0 **** 0.41
9237 H 12.537338211895326 20.46835212276012 34.54891423454729 H 0.0 **** 0.41
9238 O 44.80028303080753 47.122616449446 13.558432273704472 O 0.0 **** -0.82
9239 H 45.213850455060474 46.27369158329972 13.231156479150732 H 0.0 **** 0.41
9240 H 45.54482802527351 47.567188130043036 14.042013695490331 H 0.0 **** 0.41
9241 O 1.0320195324460473 13.556399538188973 31.45668308284036 O 0.0 **** -0.82
9242 H 0.9106158008588783 13.604780596291683 32.466802048022714 H 0.0 **** 0.41
9243 H 0.4371097449909118 12.730043956884456 31.20388734956454 H 0.0 **** 0.41
9244 O 2.9518306830827896 25.96852451753505 0.5588527682239643 O 0.0 **** -0.82
9245 H 3.886883967385508 26.17143089093177 0.7406463552662004 H 0.0 **** 0.41
9246 H 2.490055035620088 26.08545302702248 1.4391519332078602 H 0.0 **** 0.41
9247 O 18.767637852393275 26.243983994219363 2.4254053966072533 O 0.0 **** -0.82
9248 H 19.151546335380488 26.078747848756322 3.3723756934261857 H 0.0 **** 0.41
9249 H 19.637647495769084 26.545901969655645 2.006816078743185 H 0.0 **** 0.41
9250 O 13.911653618623692 11.006126659559675 27.6823209034912 O 0.0 **** -0.82
9251 H 13.05817565536109 10.926931685465755 28.24439477617886 H 0.0 **** 0.41
9252 H 13.515269445486284 11.302427315117693 26.7874766173805 H 0.0 **** 0.41
9253 O 27.535232702489544 23.972172975150173 26.896779298673334 O 0.0 **** -0.82
9254 H 28.002551291530704 24.77460765859028 27.340534937205923 H 0.0 **** 0.41
9255 H 26.728557098610707 23.634986824999014 27.407914304152534 H 0.0 **** 0.41
9256 O 19.91674702615605 42.297555808865134 0.9965110057533646 O 0.0 **** -0.82
9257 H 20.49102735913571 41.82820107345787 1.7001463095907137 H 0.0 **** 0.41
9258 H 19.961826964954177 43.29119569740739 1.1809508999703966 H 0.0 **** 0.41
9259 O 13.027946711871834 5.214051305310329 10.502465170472757 O 0.0 **** -0.82
9260 H 13.972112697812499 4.923875288930207 10.360641520809352 H 0.0 **** 0.41
9261 H 12.620259602912164 5.215470762195123 9.597640886948259 H 0.0 **** 0.41
9262 O 28.09608276629288 20.150384886712107 6.227069048343037 O 0.0 **** -0.82
9263 H 28.202779634936707 20.217974945592587 5.174070547971262 H 0.0 **** 0.41
9264 H 28.780822894210335 19.461469395823016 6.567120515152063 H 0.0 **** 0.41
9265 O 15.618870780713864 33.14614962751197 15.774914975758792 O 0.0 **** -0.82
9266 H 15.111975053267061 33.940346907117124 15.326335006384626 H 0.0 **** 0.41
9267 H 16.347651033860455 33.44289613911845 16.464167429007837 H 0.0 **** 0.41
9268 O 46.22633741801869 25.833203432158268 40.45736861638362 O 0.0 **** -0.82
9269 H 46.96563429995573 26.489215753183924 40.63396522560785 H 0.0 **** 0.41
9270 H 46.7205657423451 24.98481891018144 40.02998954975403 H 0.0 **** 0.41
9271 O 5.964565455509188 15.705987805590992 32.858439134752395 O 0.0 **** -0.82
9272 H 5.476509581674939 14.812260539592966 32.90103885784796 H 0.0 **** 0.41
9273 H 5.274836219019804 16.447004645309207 32.785405551322405 H 0.0 **** 0.41
9274 O 25.641879840424966 46.35482685897156 28.867590793480762 O 0.0 **** -0.82
9275 H 26.613003462639245 46.36186944762791 29.233784722311388 H 0.0 **** 0.41
9276 H 25.412512772557132 45.40092063132411 29.155645377561253 H 0.0 **** 0.41
9277 O 39.538986798846715 27.15293327279423 33.78452217089237 O 0.0 **** -0.82
9278 H 38.91480387291014 26.467497824973194 33.31328860022696 H 0.0 **** 0.41
9279 H 40.476044744955395 26.760404095193365 33.63942262908852 H 0.0 **** 0.41
9280 O 23.3709105150305 43.800450879482845 44.65871335473394 O 0.0 **** -0.82
9281 H 22.977458152041244 43.61240926335205 45.6062147579171 H 0.0 **** 0.41
9282 H 23.88613251596458 44.69027635151999 44.876267058988354 H 0.0 **** 0.41
9283 O 27.99538853913837 46.8922159576628 30.208087937561576 O 0.0 **** -0.82
9284 H 27.802574882630505 46.38099017413111 31.092497283478675 H 0.0 **** 0.41
9285 H 28.374164361992474 47.70710424049992 30.592344894284743 H 0.0 **** 0.41
9286 O 21.46809433951984 46.929498503374184 25.0767112269194 O 0.0 **** -0.82
9287 H 22.01120615948771 46.36775623626152 25.739300519906003 H 0.0 **** 0.41
9288 H 20.558138794885394 46.84595299800283 25.498546414141465 H 0.0 **** 0.41
9289 O 46.98360582894239 5.350366540620879 42.0414766737529 O 0.0 **** -0.82
9290 H 46.51504413285728 4.53331074959451 42.260967886674486 H 0.0 **** 0.41
9291 H 47.977283332622875 4.987354753025711 42.09467275159309 H 0.0 **** 0.41
9292 O 34.6968347185526 22.349932736509103 37.690263041227986 O 0.0 **** -0.82
9293 H 33.69895337120891 22.36911644501119 37.45792151086092 H 0.0 **** 0.41
9294 H 35.13913965941298 22.4060301743644 36.80814178478079 H 0.0 **** 0.41
9295 O 21.66288497500531 13.054692611113843 34.1601827941416 O 0.0 **** -0.82
9296 H 21.247510759508035 13.921151879118476 34.54408151307628 H 0.0 **** 0.41
9297 H 20.863954164587266 12.718343160106045 33.65638283565533 H 0.0 **** 0.41
9298 O 45.83648132406299 40.47932473340044 13.266103174360355 O 0.0 **** -0.82
9299 H 45.967068242344396 39.50735407168046 13.235156570627316 H 0.0 **** 0.41
9300 H 45.21410944205879 40.71135946729656 12.545580341943378 H 0.0 **** 0.41
9301 O 12.927925433714968 43.46210927788343 13.386616687802388 O 0.0 **** -0.82
9302 H 13.146273949165838 42.937460594227176 12.508580490242721 H 0.0 **** 0.41
9303 H 13.686988649003027 43.547288110371106 14.001528350053036 H 0.0 **** 0.41
9304 O 29.98015348208608 48.198340517770774 35.01229659927278 O 0.0 **** -0.82
9305 H 29.873665884419495 47.938884196378176 34.060187106431144 H 0.0 **** 0.41
9306 H 30.987369836397406 48.34125947400204 35.05388292680549 H 0.0 **** 0.41
9307 O 27.35632357943536 48.645260323035764 46.93531323603353 O 0.0 **** -0.82
9308 H 28.23547359269893 48.209466646056974 46.754413832357045 H 0.0 **** 0.41
9309 H 26.95356282181072 48.52015064191201 45.95131536801107 H 0.0 **** 0.41
9310 O 9.38861771327136 34.13131707023378 22.2243620581138 O 0.0 **** -0.82
9311 H 10.345941687065718 34.26541410587157 21.981205252335215 H 0.0 **** 0.41
9312 H 9.389416844668931 34.122342835811054 23.217077273277532 H 0.0 **** 0.41
9313 O 23.557263580562406 8.396259116874973 48.770435274921724 O 0.0 **** -0.82
9314 H 24.312497303510014 8.975088576521316 49.05743781199328 H 0.0 **** 0.41
9315 H 23.747052407780043 8.226941177611515 47.83364886289072 H 0.0 **** 0.41
9316 O 19.74229429949386 15.270645324045166 10.61761728778312 O 0.0 **** -0.82
9317 H 18.94802946248036 15.89743328277301 10.463260047252378 H 0.0 **** 0.41
9318 H 19.416165226111097 14.494539721263727 11.171368118959814 H 0.0 **** 0.41
9319 O 37.42388769918697 27.071717214568558 16.966744190093806 O 0.0 **** -0.82
9320 H 37.43677317476519 27.4555501989764 16.016455619774263 H 0.0 **** 0.41
9321 H 36.72324064911595 26.284624029294587 16.964083126463905 H 0.0 **** 0.41
9322 O 17.48789264759425 9.392661648123351 46.16769365415614 O 0.0 **** -0.82
9323 H 17.186037417669052 8.50245554589177 46.49027174468135 H 0.0 **** 0.41
9324 H 16.979753931948288 9.546308608834636 45.26729174985027 H 0.0 **** 0.41
9325 O 12.066256468949284 35.01991738409348 22.0299846530371 O 0.0 **** -0.82
9326 H 12.242318922071128 35.286927794534805 21.0262397471501 H 0.0 **** 0.41
9327 H 11.99808105963556 35.882575450912384 22.63291655499347 H 0.0 **** 0.41
9328 O 42.3759784600438 20.712507997932942 25.39305870731017 O 0.0 **** -0.82
9329 H 42.070746622578696 21.651418676434524 25.2873159342274 H 0.0 **** 0.41
9330 H 42.021458692000586 20.18307656481115 24.61190639784111 H 0.0 **** 0.41
9331 O 3.189716268714406 2.9922619060675126 24.077736130508367 O 0.0 **** -0.82
9332 H 2.349838798284914 3.5367272816326816 24.241161958365037 H 0.0 **** 0.41
9333 H 2.6613349898114365 2.136671097809955 23.844103000362505 H 0.0 **** 0.41
9334 O 38.011608477411414 4.6944256777388915 20.730073421779174 O 0.0 **** -0.82
9335 H 38.83801962297693 5.116131368307386 21.199607416137965 H 0.0 **** 0.41
9336 H 37.304709601790194 4.587416625350016 21.423728854526132 H 0.0 **** 0.41
9337 O 18.493510237163616 24.15901170248213 46.15656005497519 O 0.0 **** -0.82
9338 H 17.77990330022293 24.661502421733953 46.744749619551214 H 0.0 **** 0.41
9339 H 18.98013931728832 23.463839660084037 46.687946537896906 H 0.0 **** 0.41
9340 O 6.4796416258062015 10.9623828290716 28.48214769020487 O 0.0 **** -0.82
9341 H 5.495822734132722 10.777887701151428 28.417303046138276 H 0.0 **** 0.41
9342 H 6.954719969600586 10.212802997033776 27.962189616096193 H 0.0 **** 0.41
9343 O 7.241720865408048 0.8014661586740459 32.031946794351214 O 0.0 **** -0.82
9344 H 7.669957074863547 0.6710197004275926 32.928198811451026 H 0.0 **** 0.41
9345 H 6.8570180713198425 -0.11330818626932171 31.799223002984604 H 0.0 **** 0.41
9346 O 10.782312178353513 29.53059315194317 34.9783113514348 O 0.0 **** -0.82
9347 H 10.445387471986615 30.317889024553867 35.503639481765376 H 0.0 **** 0.41
9348 H 11.68761457364348 29.318524209150528 35.36091776153129 H 0.0 **** 0.41
9349 O 4.529396387837497 0.7232153841899203 19.473647611095153 O 0.0 **** -0.82
9350 H 5.333155926716121 1.1629687838394864 19.04154857125868 H 0.0 **** 0.41
9351 H 4.5739371595626555 1.044517215793376 20.437385017448758 H 0.0 **** 0.41
9352 O 30.839277458039884 46.32086680477482 49.509259647399674 O 0.0 **** -0.82
9353 H 30.313976131262073 46.44713498801658 50.36704767556666 H 0.0 **** 0.41
9354 H 31.701671471329192 45.93628924185514 49.83852352056158 H 0.0 **** 0.41
9355 O 21.94543659974533 46.63490578636422 12.305946187415195 O 0.0 **** -0.82
9356 H 21.72428145563792 47.5324862783183 12.661031621281793 H 0.0 **** 0.41
9357 H 22.905622023908055 46.487695178782 12.580085234367502 H 0.0 **** 0.41
9358 O 0.09146969044753916 36.54245807075206 42.13550669079441 O 0.0 **** -0.82
9359 H 1.01754022476414 36.900982802723206 42.101381646380894 H 0.0 **** 0.41
9360 H 0.112486326692391 35.792549337481745 42.81354418903089 H 0.0 **** 0.41
9361 O 34.99386908305574 49.01502449028 49.03736788271725 O 0.0 **** -0.82
9362 H 34.9780664536857 48.01994122832946 48.79809933079587 H 0.0 **** 0.41
9363 H 34.9205204459702 49.519097992083 48.24898395058293 H 0.0 **** 0.41
9364 O 45.15333276445857 36.05813376868077 34.60111817616978 O 0.0 **** -0.82
9365 H 45.553723794384105 35.49586670231218 33.86573744100815 H 0.0 **** 0.41
9366 H 45.77478514689746 36.82310890360437 34.657885960688375 H 0.0 **** 0.41
9367 O 20.87658705507981 18.094450883379196 30.244206844870657 O 0.0 **** -0.82
9368 H 21.610117008930132 18.556524946675026 29.65976415776944 H 0.0 **** 0.41
9369 H 20.35560227945253 17.50131530686104 29.62320890037131 H 0.0 **** 0.41
9370 O 8.779319201566231 6.852093965444048 34.976920291586374 O 0.0 **** -0.82
9371 H 9.36411855259709 7.679424894832138 35.00173113046266 H 0.0 **** 0.41
9372 H 8.225208367267427 6.9548343039888465 34.143143067583054 H 0.0 **** 0.41
9373 O 22.702015704192718 39.08051816962503 20.920493084516767 O 0.0 **** -0.82
9374 H 22.0794693907647 38.59152039511874 20.262859871385796 H 0.0 **** 0.41
9375 H 22.07638446451584 39.58994762697665 21.636407965731667 H 0.0 **** 0.41
9376 O 45.30966529665273 11.223761624560947 36.56182269544776 O 0.0 **** -0.82
9377 H 46.099398423461196 11.220430245004424 35.92810444587855 H 0.0 **** 0.41
9378 H 45.86925937298912 11.177894624083777 37.46435135090494 H 0.0 **** 0.41
9379 O 32.13575445256522 44.64023914931641 8.89299476384452 O 0.0 **** -0.82
9380 H 32.38213243186281 45.52540797387146 9.369917039414666 H 0.0 **** 0.41
9381 H 32.5436291875864 44.79572578978602 7.975868557644112 H 0.0 **** 0.41
9382 O 15.51036359473433 28.0893897002045 5.904212456765169 O 0.0 **** -0.82
9383 H 15.827551625738522 28.924626734885575 5.505011201849125 H 0.0 **** 0.41
9384 H 15.51615133294058 28.24534007019445 6.942788002036129 H 0.0 **** 0.41
9385 O 41.56876465287706 1.373756674576022 34.254060877845646 O 0.0 **** -0.82
9386 H 41.9113070347307 2.311664981683762 34.09457462491751 H 0.0 **** 0.41
9387 H 40.55764258548062 1.4614173025461952 34.07948610931321 H 0.0 **** 0.41
9388 O 20.297960332061944 28.998028903972667 12.230384766801748 O 0.0 **** -0.82
9389 H 20.066280428082926 29.905864002798666 12.64541135469819 H 0.0 **** 0.41
9390 H 21.28276041631011 28.935828852680544 12.236103275417896 H 0.0 **** 0.41
9391 O 18.35413653935422 0.09516409575827822 21.66302654710266 O 0.0 **** -0.82
9392 H 19.004309967181058 -0.573910763760928 22.083734581543357 H 0.0 **** 0.41
9393 H 17.618869459236738 0.22865091878480825 22.3519371454456 H 0.0 **** 0.41
9394 O 27.115124343325963 16.55894635008451 23.12903245576595 O 0.0 **** -0.82
9395 H 26.70051728062333 17.2802075211047 23.682455709284397 H 0.0 **** 0.41
9396 H 27.262598010796626 16.82255574931004 22.184251206770185 H 0.0 **** 0.41
9397 O 49.5997775358876 1.2642883295192533 29.283749802946325 O 0.0 **** -0.82
9398 H 50.29482937820489 0.9314567322028324 29.962964645420044 H 0.0 **** 0.41
9399 H 50.05372003308184 1.0882844261848703 28.429716426389888 H 0.0 **** 0.41
9400 O 7.96808144044339 34.095907458555814 33.6395076909843 O 0.0 **** -0.82
9401 H 8.755963014868888 34.58320349905596 34.11020951336022 H 0.0 **** 0.41
9402 H 7.997610734920011 33.171614824878 34.05825418615295 H 0.0 **** 0.41
9403 O 26.302361897324655 35.36303350133613 43.70034220199184 O 0.0 **** -0.82
9404 H 25.69939720982188 35.706864176920334 42.92869013119628 H 0.0 **** 0.41
9405 H 27.205052084073056 35.61277309497742 43.27421738480606 H 0.0 **** 0.41
9406 O 49.581413025082455 41.42384525081639 35.15487909146159 O 0.0 **** -0.82
9407 H 49.74745406687197 40.41551693723066 35.00355284075777 H 0.0 **** 0.41
9408 H 50.45402094528836 41.91395165993544 34.96653012147893 H 0.0 **** 0.41
9409 O 27.840078543867257 47.97912496271599 27.378131930806592 O 0.0 **** -0.82
9410 H 28.042921166030517 47.35800074247359 26.566533363192654 H 0.0 **** 0.41
9411 H 27.409390522317185 47.35659640817284 28.069706126656033 H 0.0 **** 0.41
9412 O 47.21226494679514 33.84657430193969 32.6525492320717 O 0.0 **** -0.82
9413 H 47.8407244115186 33.05976277147425 32.477538986831064 H 0.0 **** 0.41
9414 H 47.78156053583267 34.68677456558298 32.94806801415861 H 0.0 **** 0.41
9415 O 48.434636969035644 49.281880629898474 39.54789879612167 O 0.0 **** -0.82
9416 H 48.714121054931404 49.704163789784396 38.68827992180603 H 0.0 **** 0.41
9417 H 47.43480873658594 49.43528868418314 39.47549671348749 H 0.0 **** 0.41
9418 O 45.535627495487475 49.52844786345043 27.371338192497078 O 0.0 **** -0.82
9419 H 45.49244654506463 50.44642442755963 27.80597946659462 H 0.0 **** 0.41
9420 H 46.203098548621675 49.10928050381017 27.972488503705407 H 0.0 **** 0.41
9421 O 15.544117705078023 20.71501766114912 10.765797894279444 O 0.0 **** -0.82
9422 H 15.382989441693894 21.111047014013337 9.844836101472104 H 0.0 **** 0.41
9423 H 15.185648975151324 19.833187059046963 10.6973649505059 H 0.0 **** 0.41
9424 O 8.82004134561416 29.20756013543598 47.56347501417551 O 0.0 **** -0.82
9425 H 8.419055761568309 28.802673586135217 48.39302268020023 H 0.0 **** 0.41
9426 H 9.848713181472975 29.124601184803595 47.63492025916671 H 0.0 **** 0.41
9427 O 10.4023773390477 45.54834801907469 44.81919442635968 O 0.0 **** -0.82
9428 H 10.308364386915818 46.23292500349813 44.0407097166449 H 0.0 **** 0.41
9429 H 9.432652373563155 45.24169776045653 44.802745570901834 H 0.0 **** 0.41
9430 O 26.555994200193567 43.273938204402235 28.81783737775042 O 0.0 **** -0.82
9431 H 25.785342711288664 42.59142739107645 28.681466433003287 H 0.0 **** 0.41
9432 H 26.946655687099536 43.11698292737746 29.735579249553414 H 0.0 **** 0.41
9433 O 36.362420775637794 5.906428507883874 44.97524928899279 O 0.0 **** -0.82
9434 H 37.121806186679386 5.199608055534256 45.08830881084774 H 0.0 **** 0.41
9435 H 36.612914831136536 6.83879652525561 45.31876049855738 H 0.0 **** 0.41
9436 O 11.486738103600459 22.963977536864423 43.959513836017635 O 0.0 **** -0.82
9437 H 12.31112173239228 23.18429675571242 44.52617789506422 H 0.0 **** 0.41
9438 H 11.738490365471087 22.184402195012368 43.319299809868006 H 0.0 **** 0.41
9439 O 48.855001030431254 27.74547217166494 37.49694299496963 O 0.0 **** -0.82
9440 H 47.8551767258095 27.795261871169604 37.63267312691561 H 0.0 **** 0.41
9441 H 49.00624016401525 26.949360339363338 36.87984746841468 H 0.0 **** 0.41
9442 O 48.01614640194985 7.907184994697567 33.07395131623693 O 0.0 **** -0.82
9443 H 48.3063668745097 8.093930810285107 32.14296030416034 H 0.0 **** 0.41
9444 H 47.661929329964494 6.9577132036576765 33.03055036095175 H 0.0 **** 0.41
9445 O 4.450604406621743 5.075876730481047 8.95279377848371 O 0.0 **** -0.82
9446 H 3.6513449007576 4.696549650255812 9.356772889443405 H 0.0 **** 0.41
9447 H 4.449743113977391 6.044032264905567 9.292917053236302 H 0.0 **** 0.41
9448 O 10.370362849424495 35.548212098184266 15.406530469671253 O 0.0 **** -0.82
9449 H 9.720257653914658 35.6972667825029 16.191267674000983 H 0.0 **** 0.41
9450 H 10.285608769567524 36.455170162807825 14.914927247163192 H 0.0 **** 0.41
9451 O 49.41352597306083 11.13817676286899 23.855008784003413 O 0.0 **** -0.82
9452 H 49.59179358893169 11.759695572884933 23.08032067575719 H 0.0 **** 0.41
9453 H 50.37994507352399 10.80326292627803 24.155240774917957 H 0.0 **** 0.41
9454 O 28.941218917507243 10.171078432934086 13.543580340234474 O 0.0 **** -0.82
9455 H 29.914836279300147 9.846946783024942 13.393601765760195 H 0.0 **** 0.41
9456 H 28.488071332357464 9.377016491939935 13.966367402852118 H 0.0 **** 0.41
9457 O 38.26841105378696 45.71156153038379 38.353041053323786 O 0.0 **** -0.82
9458 H 39.18484628975601 45.410995403005906 37.964409963067396 H 0.0 **** 0.41
9459 H 38.597376505696275 46.53854294408011 38.92636558836226 H 0.0 **** 0.41
9460 O 28.274566854474106 45.12732647911006 49.40733159401521 O 0.0 **** -0.82
9461 H 29.14158686918798 45.65892354081345 49.37089737134426 H 0.0 **** 0.41
9462 H 28.520231113054397 44.15673114538467 49.23704458424727 H 0.0 **** 0.41
9463 O 49.60442030904906 45.78374729874794 23.033147500086436 O 0.0 **** -0.82
9464 H 48.8675176073121 46.0793106625353 22.391307415501945 H 0.0 **** 0.41
9465 H 49.255275869897936 45.73410619613628 23.94698802030271 H 0.0 **** 0.41
9466 O 12.489952558841921 32.71267235238626 25.64106100425185 O 0.0 **** -0.82
9467 H 12.657248034357735 32.76201919864048 24.657990159445287 H 0.0 **** 0.41
9468 H 12.940896243064287 31.886471253292694 25.909152517403427 H 0.0 **** 0.41
9469 O 36.62964360657809 30.4632300802167 3.2206185704388615 O 0.0 **** -0.82
9470 H 36.57912086545408 29.704690690992603 2.540654042683934 H 0.0 **** 0.41
9471 H 37.6178447762541 30.647283765127828 3.3133705598402856 H 0.0 **** 0.41
9472 O 41.97520556634337 37.24844600316692 42.1123133658535 O 0.0 **** -0.82
9473 H 42.277135468091565 36.42453396951548 42.57016115052762 H 0.0 **** 0.41
9474 H 41.05577843448949 37.36753343215782 42.53227011622408 H 0.0 **** 0.41
9475 O 32.41718250939 0.9653094468905152 36.58921204845461 O 0.0 **** -0.82
9476 H 33.41003425349184 1.1505420051655975 36.69131224726757 H 0.0 **** 0.41
9477 H 32.026104576545904 0.8309148610216539 37.54002321947965 H 0.0 **** 0.41
9478 O 20.387372489329035 8.397239670369007 45.72193406684064 O 0.0 **** -0.82
9479 H 20.835756065691168 9.080371175404183 46.32957177213055 H 0.0 **** 0.41
9480 H 19.3819813114403 8.630646942107123 45.79657280478972 H 0.0 **** 0.41
9481 O 13.517108268393102 25.12454072796663 16.107569098661646 O 0.0 **** -0.82
9482 H 14.520773406857117 25.062448471189807 16.098962870263126 H 0.0 **** 0.41
9483 H 13.234991884520815 25.101999309044626 15.105013613020144 H 0.0 **** 0.41
9484 O 19.140534784605787 9.151102186298933 49.597550422290006 O 0.0 **** -0.82
9485 H 19.657565619011542 9.708184288709244 48.96619818184303 H 0.0 **** 0.41
9486 H 19.684343899413413 9.251383687907692 50.424613841311185 H 0.0 **** 0.41
9487 O 38.35141276731848 2.0168704814239833 37.70459850893885 O 0.0 **** -0.82
9488 H 38.347787265212844 0.9809190531135187 37.46524229441063 H 0.0 **** 0.41
9489 H 38.09918940408545 2.5375990022867843 36.847296569913155 H 0.0 **** 0.41
9490 O 26.066204834496762 38.57061936397774 32.70220779488344 O 0.0 **** -0.82
9491 H 26.46598890914474 37.99454053618593 33.446401129468256 H 0.0 **** 0.41
9492 H 25.39343473597102 37.9566943603019 32.233428595048025 H 0.0 **** 0.41
9493 O 21.84942104708834 27.461780229566926 29.22525769982515 O 0.0 **** -0.82
9494 H 22.108974762137166 28.126142907837473 29.952200123103534 H 0.0 **** 0.41
9495 H 22.674546103992242 27.418636790471176 28.661090568738526 H 0.0 **** 0.41
9496 O 16.25331897758419 0.44325070722756676 23.697702256902318 O 0.0 **** -0.82
9497 H 15.935134495027715 1.3453760127222683 24.100776807216548 H 0.0 **** 0.41
9498 H 15.913156771562496 -0.22701416516559902 24.397186320175734 H 0.0 **** 0.41
9499 O 43.20695329960832 5.677137841098234 37.10938251947776 O 0.0 **** -0.82
9500 H 44.22227818266571 5.636801600621823 37.051648969800745 H 0.0 **** 0.41
9501 H 42.90918538618753 5.774491475983983 36.17516483958605 H 0.0 **** 0.41
9502 O 29.015533865322382 10.630752969513537 41.40835215454628 O 0.0 **** -0.82
9503 H 28.39330548426622 10.197299295177146 42.1167995505557 H 0.0 **** 0.41
9504 H 28.697813025394012 10.277656432070216 40.49316537017367 H 0.0 **** 0.41
9505 O 38.80919988023856 30.957749522085333 14.03218526515722 O 0.0 **** -0.82
9506 H 39.269234305477376 31.92272148010437 14.138846709268163 H 0.0 **** 0.41
9507 H 37.955328263029735 30.85018395805898 14.54421762803644 H 0.0 **** 0.41
9508 O 11.29557286165835 14.791549874573263 18.471626768339792 O 0.0 **** -0.82
9509 H 10.685389198809943 14.459509270486935 17.732380421323686 H 0.0 **** 0.41
9510 H 12.191816836049028 14.634397471224439 18.052782226543325 H 0.0 **** 0.41
9511 O 20.77033651946878 34.44717723598 39.14779326775077 O 0.0 **** -0.82
9512 H 20.33723225243586 35.027704202474006 38.4718359708595 H 0.0 **** 0.41
9513 H 20.34163431932296 33.576252740018205 39.20302546222172 H 0.0 **** 0.41
9514 O 21.873325682509858 2.386341338428296 6.313473969516464 O 0.0 **** -0.82
9515 H 21.602031025557523 2.4811791437698956 7.281361857668802 H 0.0 **** 0.41
9516 H 21.130924353209878 1.714599679929776 6.022414734906327 H 0.0 **** 0.41
9517 O 2.0713787069290595 37.05493204055731 17.131265603273974 O 0.0 **** -0.82
9518 H 1.698694618744311 37.97495682952718 17.096694250428982 H 0.0 **** 0.41
9519 H 1.303253907385395 36.45831508939723 17.34512781727159 H 0.0 **** 0.41
9520 O 30.53699331472768 24.126399315888364 7.087214215325112 O 0.0 **** -0.82
9521 H 30.066665357380757 23.41914609825212 7.69394935749667 H 0.0 **** 0.41
9522 H 31.477622387566683 23.901327789333372 7.351416753191472 H 0.0 **** 0.41
9523 O 35.19618151341784 5.345565865170919 42.56123598324322 O 0.0 **** -0.82
9524 H 35.44058598203917 6.045895142957576 41.87325835022793 H 0.0 **** 0.41
9525 H 35.64693524062534 5.518848113031282 43.457311023859575 H 0.0 **** 0.41
9526 O 0.9495042936897903 39.34022796781209 18.591758997915125 O 0.0 **** -0.82
9527 H 0.15832583686788837 38.854023489644504 18.985819245195277 H 0.0 **** 0.41
9528 H 0.6440647103990021 40.16665292916767 18.064094459083243 H 0.0 **** 0.41
9529 O 17.96320378633878 4.968531191460874 43.385688241417164 O 0.0 **** -0.82
9530 H 18.358636917068623 4.88571047151621 42.44649349840739 H 0.0 **** 0.41
9531 H 17.31740480337288 5.750763626897314 43.37234308745034 H 0.0 **** 0.41
9532 O 40.812750792529485 10.732817216317196 16.12897338295026 O 0.0 **** -0.82
9533 H 40.958888387536575 9.92801635458467 15.479135732721852 H 0.0 **** 0.41
9534 H 41.73664115693364 11.076371409878188 16.267271302055995 H 0.0 **** 0.41
9535 O 2.4250122137455676 39.054792433572516 41.14981828256781 O 0.0 **** -0.82
9536 H 3.400212120954336 38.83805614271398 41.3694613365546 H 0.0 **** 0.41
9537 H 2.4484338465967284 39.02818466734522 40.14877982882591 H 0.0 **** 0.41
9538 O 20.093773332895083 5.073614438686555 44.98807009125586 O 0.0 **** -0.82
9539 H 19.22572055393455 4.8000885368019794 44.52419547587206 H 0.0 **** 0.41
9540 H 20.700085864337154 4.338861465690478 44.72087883533519 H 0.0 **** 0.41
9541 O 27.39964939740859 13.32663110721235 39.702880787710576 O 0.0 **** -0.82
9542 H 28.157366770771578 13.491188413700938 40.381832470914695 H 0.0 **** 0.41
9543 H 26.67496989416899 14.031298315433279 39.90847693577875 H 0.0 **** 0.41
9544 O 9.33753451655528 15.05232858056074 27.438417222438034 O 0.0 **** -0.82
9545 H 8.357798868554227 15.33375535831361 27.432259559676595 H 0.0 **** 0.41
9546 H 9.726540300575593 15.377433689947452 26.579316611864698 H 0.0 **** 0.41
9547 O 43.77935799113138 45.207430176368284 25.44833258361281 O 0.0 **** -0.82
9548 H 43.58821875418581 45.633499804503295 24.489368196975136 H 0.0 **** 0.41
9549 H 43.551083848009036 45.98585844169216 26.069460499405565 H 0.0 **** 0.41
9550 O 1.858369771540083 34.366560909417295 28.525149310991992 O 0.0 **** -0.82
9551 H 1.7566640870211216 34.67784724934081 29.50191362830936 H 0.0 **** 0.41
9552 H 1.8630201945549913 35.281695231543885 28.048754183771276 H 0.0 **** 0.41
9553 O 15.526117222770598 40.14949988923704 25.146205772748864 O 0.0 **** -0.82
9554 H 15.311847657549412 39.12423074993946 25.109177462321874 H 0.0 **** 0.41
9555 H 15.453753717073083 40.316158601602936 24.13404698493599 H 0.0 **** 0.41
9556 O 33.85205240559624 41.18531465950508 40.09960915176172 O 0.0 **** -0.82
9557 H 34.71386723247614 40.79863372678665 40.28240305413841 H 0.0 **** 0.41
9558 H 33.19757563530823 40.692774886442834 40.70838227078186 H 0.0 **** 0.41
9559 O 2.337139108716916 19.207511402292965 22.91318139551394 O 0.0 **** -0.82
9560 H 2.7081197768286533 18.279341550884283 22.97873159884373 H 0.0 **** 0.41
9561 H 1.8987192829878632 19.46363015273306 23.786124488940764 H 0.0 **** 0.41
9562 O 24.24991084046268 8.117722133837093 37.395553007967585 O 0.0 **** -0.82
9563 H 23.38278866916756 7.636283693775876 37.11451143750964 H 0.0 **** 0.41
9564 H 24.07631802328151 8.315854430912605 38.33706927438436 H 0.0 **** 0.41
9565 O 21.83098818175427 36.12750827799016 41.183354696668474 O 0.0 **** -0.82
9566 H 21.407292569141713 35.452934511169126 40.616446270638505 H 0.0 **** 0.41
9567 H 21.077027121140766 36.34030197933547 41.86889483056975 H 0.0 **** 0.41
9568 O 20.77725602248084 15.772592185556917 39.674950116002954 O 0.0 **** -0.82
9569 H 21.02792336218555 15.770090053627229 38.68677989105423 H 0.0 **** 0.41
9570 H 19.916618714177247 16.341746857481795 39.842233679839445 H 0.0 **** 0.41
9571 O 26.836609640150474 6.396787456465368 49.80697044920851 O 0.0 **** -0.82
9572 H 26.47375252784869 5.4565625508325795 49.70358647435099 H 0.0 **** 0.41
9573 H 26.757843809357723 6.649597903231346 50.748827251809374 H 0.0 **** 0.41
9574 O 25.52780100615763 5.130987827651784 34.49640817950762 O 0.0 **** -0.82
9575 H 25.961822844623324 4.577915100296979 33.80937997411756 H 0.0 **** 0.41
9576 H 24.958887136472185 4.507305612239518 35.06346559528996 H 0.0 **** 0.41
9577 O 4.7312249102290025 18.739963837742053 16.563012584274656 O 0.0 **** -0.82
9578 H 3.9474917553343047 18.17640737104768 16.229928743018885 H 0.0 **** 0.41
9579 H 5.540650537956587 18.159510126139622 16.51425319717732 H 0.0 **** 0.41
9580 O 40.666587084064496 9.881887232104843 4.147166530471557 O 0.0 **** -0.82
9581 H 40.92665055018315 8.834348472326846 4.239942781963578 H 0.0 **** 0.41
9582 H 40.84828013185682 10.362488309149205 5.071643453423917 H 0.0 **** 0.41
9583 O 33.130502059205185 23.073388867589642 7.884815802043995 O 0.0 **** -0.82
9584 H 33.554004668456415 22.44139612119469 7.188396964544694 H 0.0 **** 0.41
9585 H 33.871898692613314 23.18089673688366 8.551885398077516 H 0.0 **** 0.41
9586 O 27.83206787464669 33.48001605863311 35.744785763934466 O 0.0 **** -0.82
9587 H 26.973975078893794 33.70487683077103 35.15493448678525 H 0.0 **** 0.41
9588 H 27.922262045596 32.49290138395769 36.00555161221428 H 0.0 **** 0.41
9589 O 7.081093509559488 39.242195045499734 31.642624166510366 O 0.0 **** -0.82
9590 H 7.267438639897097 39.65024642725876 32.57682479770384 H 0.0 **** 0.41
9591 H 6.5988819908556815 39.960721114576515 31.18973776699911 H 0.0 **** 0.41
9592 O 8.775678636877245 21.998385570028816 20.327887940203418 O 0.0 **** -0.82
9593 H 8.178194328695987 21.23974148165885 20.154991486348425 H 0.0 **** 0.41
9594 H 8.086943223382953 22.720836107874458 20.51953468671498 H 0.0 **** 0.41
9595 O 35.91157331788088 22.49872160804414 32.29141425772937 O 0.0 **** -0.82
9596 H 35.410509572645914 23.338816528611797 32.099056329194646 H 0.0 **** 0.41
9597 H 36.68558663389265 22.414956518989847 31.70128514934429 H 0.0 **** 0.41
9598 O 38.3363995028984 40.85197641082296 24.986705934485883 O 0.0 **** -0.82
9599 H 38.24410713110323 40.69439754354788 23.990587640552107 H 0.0 **** 0.41
9600 H 39.276451638142284 40.55021207489608 25.217153662922968 H 0.0 **** 0.41
9601 O 4.262122974713396 41.25790229928702 5.267350307620973 O 0.0 **** -0.82
9602 H 5.246935007474636 41.40842882134408 5.374721114749384 H 0.0 **** 0.41
9603 H 4.181256601313118 41.22653335202057 4.214074121271587 H 0.0 **** 0.41
9604 O 47.05694971615387 15.796132247924064 48.08729386619574 O 0.0 **** -0.82
9605 H 47.14747581003243 16.467996726533613 47.32664938007999 H 0.0 **** 0.41
9606 H 46.416733976401304 16.23412844250133 48.709368642899825 H 0.0 **** 0.41
9607 O 37.386772470528946 40.98200222322707 22.11817754455738 O 0.0 **** -0.82
9608 H 37.72557790311989 41.931238145834385 22.31237556297747 H 0.0 **** 0.41
9609 H 37.804027313014096 40.73155475747461 21.23658780343504 H 0.0 **** 0.41
9610 O 45.215747839027145 40.0025854041558 39.497904574846636 O 0.0 **** -0.82
9611 H 44.63580129713906 39.773189410845575 40.33447654215242 H 0.0 **** 0.41
9612 H 45.041089858946435 40.99177934984334 39.39564842485848 H 0.0 **** 0.41
9613 O 37.524055655737406 18.30765237761492 0.9805558884132667 O 0.0 **** -0.82
9614 H 38.3139833278763 18.90567068016003 0.7316941918237777 H 0.0 **** 0.41
9615 H 36.67160749645008 18.84681808959188 1.12272210340439 H 0.0 **** 0.41
9616 O 38.04862079088474 12.52288920582666 21.925146699640038 O 0.0 **** -0.82
9617 H 37.79959649817778 12.867260259042743 20.980830622352954 H 0.0 **** 0.41
9618 H 37.33774219559538 11.743586300643654 21.93685053848526 H 0.0 **** 0.41
9619 O 38.935525910021205 15.824103227212891 19.45751681082192 O 0.0 **** -0.82
9620 H 39.77560886285734 15.226494844544803 19.18957344929552 H 0.0 **** 0.41
9621 H 39.20635231468504 16.783590039627303 19.144281303554376 H 0.0 **** 0.41
9622 O 47.325746869917936 44.69558498044428 32.745460029415874 O 0.0 **** -0.82
9623 H 47.44908603781451 44.28945300400419 33.67595813700036 H 0.0 **** 0.41
9624 H 46.506451988802034 44.24665451835608 32.42915228925065 H 0.0 **** 0.41
9625 O 16.929402423508932 31.906059819060573 42.4355008828933 O 0.0 **** -0.82
9626 H 17.67199427250938 31.435018160422942 42.92037407490917 H 0.0 **** 0.41
9627 H 16.19966134836035 32.08004057648614 43.08006411564318 H 0.0 **** 0.41
9628 O 35.26809029355832 24.92609763012696 23.763094224671207 O 0.0 **** -0.82
9629 H 36.06290966669004 24.2300978552459 23.824607856368935 H 0.0 **** 0.41
9630 H 35.30791722799925 25.412066949648615 22.900507717597318 H 0.0 **** 0.41
9631 O 38.13826522299131 32.6197507556854 39.22008318594885 O 0.0 **** -0.82
9632 H 37.48789750200388 31.845805800029947 39.22750120006775 H 0.0 **** 0.41
9633 H 38.133296536727066 32.802348152585274 40.21779202494332 H 0.0 **** 0.41
9634 O 18.664948689528416 6.701165840390207 3.5461332366856197 O 0.0 **** -0.82
9635 H 18.268432305939267 5.756934556884522 3.6175888863642456 H 0.0 **** 0.41
9636 H 17.817574916503048 7.211813330654163 3.247222181101172 H 0.0 **** 0.41
9637 O 20.54217955972909 10.670079972249752 24.662888697206007 O 0.0 **** -0.82
9638 H 20.392164881934782 11.298231335012588 25.454763347118227 H 0.0 **** 0.41
9639 H 20.537253047020105 9.66556638033012 25.077306146902945 H 0.0 **** 0.41
9640 O 31.866397124586083 35.714231623455845 32.15351968092186 O 0.0 **** -0.82
9641 H 31.996280856719086 35.07891649667221 31.34010412937911 H 0.0 **** 0.41
9642 H 30.8526002258791 35.671027534472394 32.27881642656819 H 0.0 **** 0.41
9643 O 33.57933887414367 48.993980774700645 23.09093003455486 O 0.0 **** -0.82
9644 H 32.737431108144044 48.49866293554171 22.695331889878574 H 0.0 **** 0.41
9645 H 34.135382839057776 48.194058395586154 23.253746814129446 H 0.0 **** 0.41
9646 O 38.18756621014816 23.369886377433815 9.19053952093104 O 0.0 **** -0.82
9647 H 38.338164497705016 23.104386073899583 10.167718338592278 H 0.0 **** 0.41
9648 H 37.72969931798307 24.28549658241736 9.192383299566885 H 0.0 **** 0.41
9649 O 45.21892610131412 31.79301737357115 26.190260534228674 O 0.0 **** -0.82
9650 H 44.3423231607177 32.05529084800215 25.8277703581329 H 0.0 **** 0.41
9651 H 45.86519566827743 31.61733059541517 25.387275928277926 H 0.0 **** 0.41
9652 O 43.520141284546696 4.529098410898008 48.788605633841776 O 0.0 **** -0.82
9653 H 43.791717893220195 5.285875529519103 49.43262579103316 H 0.0 **** 0.41
9654 H 43.995046326064 3.7150706437791143 49.13013839883315 H 0.0 **** 0.41
9655 O 49.494075460964616 24.18299795453858 26.533694976288174 O 0.0 **** -0.82
9656 H 50.0808964938043 24.54359644532704 27.279572439860715 H 0.0 **** 0.41
9657 H 48.768660348223655 23.631481640078874 27.0255925036264 H 0.0 **** 0.41
9658 O 7.602843895584421 16.003964901092424 45.33860702796119 O 0.0 **** -0.82
9659 H 8.332221004264248 16.478602563756038 45.90035290120685 H 0.0 **** 0.41
9660 H 7.922520373833741 15.039727213888668 45.19620400395682 H 0.0 **** 0.41
9661 O 31.18245419305454 31.524411565278967 48.74215789153867 O 0.0 **** -0.82
9662 H 30.356677432402194 31.570632519567226 48.114911457376216 H 0.0 **** 0.41
9663 H 30.877093145218183 30.94760940962955 49.573237197164076 H 0.0 **** 0.41
9664 O 19.87783766402026 30.016030735656862 0.2059177595529552 O 0.0 **** -0.82
9665 H 19.38070791222061 30.335296654141967 0.990084257995723 H 0.0 **** 0.41
9666 H 19.148868177661154 29.956151620054047 -0.44722622293937064 H 0.0 **** 0.41
9667 O 37.488388437243195 49.138576853120824 1.1806512113774943 O 0.0 **** -0.82
9668 H 38.37145717662178 49.715220818766674 1.051205587915149 H 0.0 **** 0.41
9669 H 37.0915217622083 49.12405394937712 0.274378683035053 H 0.0 **** 0.41
9670 O 16.97705269893146 7.741271687996876 0.26637318637595087 O 0.0 **** -0.82
9671 H 16.750163623312005 7.112494824669487 -0.4885005099177704 H 0.0 **** 0.41
9672 H 17.846381267064366 8.126545560285075 -0.10500842578655778 H 0.0 **** 0.41
9673 O 21.085687359618817 35.002411726014195 27.1345971958348 O 0.0 **** -0.82
9674 H 21.827463950363097 34.575484422766365 27.676554954067953 H 0.0 **** 0.41
9675 H 21.09993259741175 35.9323262077165 27.5036827441252 H 0.0 **** 0.41
9676 O 35.82682447884175 14.013586202161799 1.5448775214705677 O 0.0 **** -0.82
9677 H 36.19580940118666 13.074187434203903 1.2510242894453327 H 0.0 **** 0.41
9678 H 35.455863205077684 14.531429025153606 0.7529794888126773 H 0.0 **** 0.41
9679 O 37.17565943265778 49.8095055299471 9.596810304563625 O 0.0 **** -0.82
9680 H 37.74782325374586 49.001577346174315 9.821820501679383 H 0.0 **** 0.41
9681 H 36.22257834697061 49.51671886436104 9.396708999401909 H 0.0 **** 0.41
9682 O 21.457644484563883 47.141984462370566 19.982483732322468 O 0.0 **** -0.82
9683 H 21.812856710088393 46.331558111419696 19.37633625384573 H 0.0 **** 0.41
9684 H 21.84937597518878 47.103141048505094 20.969070897664366 H 0.0 **** 0.41
9685 O 46.661944028176855 4.732402178739619 24.73492366806797 O 0.0 **** -0.82
9686 H 46.85411623336885 5.407266361323501 25.394906567663018 H 0.0 **** 0.41
9687 H 47.24957436303349 4.030768318289745 25.095803279849914 H 0.0 **** 0.41
9688 O 40.33975133829058 42.38174304022021 40.93597346668408 O 0.0 **** -0.82
9689 H 39.42073286472515 42.067363520320654 40.70623145514251 H 0.0 **** 0.41
9690 H 40.68282442171177 41.87181556916184 41.713896988194115 H 0.0 **** 0.41
9691 O 30.99680848767271 10.124187491826433 16.7181057821151 O 0.0 **** -0.82
9692 H 30.642015114290363 11.079952059403794 16.794798893566867 H 0.0 **** 0.41
9693 H 30.161620906790734 9.563499030480699 16.502529885954544 H 0.0 **** 0.41
9694 O 12.389160336731504 2.7305428934955533 28.921028973703994 O 0.0 **** -0.82
9695 H 12.410304471264824 2.5363120897021876 29.92998694937028 H 0.0 **** 0.41
9696 H 13.23205284335311 2.2348549322077877 28.66460095011953 H 0.0 **** 0.41
9697 O 16.662038074999543 43.31534695443779 13.503311636679843 O 0.0 **** -0.82
9698 H 16.13784356417014 44.208080970940514 13.47880332086832 H 0.0 **** 0.41
9699 H 16.433516087706977 42.91682248556385 14.383310433903485 H 0.0 **** 0.41
9700 O 1.9268845762899176 36.770419419329414 27.66337409511499 O 0.0 **** -0.82
9701 H 2.7737657351862097 37.22175191589299 28.04566206417537 H 0.0 **** 0.41
9702 H 1.132627498541791 37.30674773012969 27.88777011364204 H 0.0 **** 0.41
9703 O 7.410492448176256 31.700229941420027 47.28138472524709 O 0.0 **** -0.82
9704 H 6.634198982645449 31.09364645990383 46.93224153972264 H 0.0 **** 0.41
9705 H 8.164418250884143 31.08257822591895 47.450521157629154 H 0.0 **** 0.41
9706 O 49.495863751361604 35.47104761690015 36.65092638140201 O 0.0 **** -0.82
9707 H 49.68155215102046 35.84075559147525 37.579974074716326 H 0.0 **** 0.41
9708 H 48.77969017171399 34.753973314057276 36.79540097105271 H 0.0 **** 0.41
9709 O 15.699381925655254 6.818270655548332 11.865791740136522 O 0.0 **** -0.82
9710 H 15.50219286908188 5.9195717137517105 11.459434458917713 H 0.0 **** 0.41
9711 H 14.790299315709923 7.12003723860141 12.192991535339132 H 0.0 **** 0.41
9712 O 22.338072671560937 25.337235489895388 2.0590339587476754 O 0.0 **** -0.82
9713 H 21.80193945893618 26.155914850883576 2.2392764395900975 H 0.0 **** 0.41
9714 H 22.087736202733517 24.702830470967914 2.780126737884598 H 0.0 **** 0.41
9715 O 49.27078539800984 46.17062880323405 11.442874388200309 O 0.0 **** -0.82
9716 H 49.9716819715767 45.42136583368432 11.495506180800618 H 0.0 **** 0.41
9717 H 49.19317325456445 46.5590880452809 12.38726023880081 H 0.0 **** 0.41
9718 O 38.120894553504655 37.78541247998331 9.429875753844158 O 0.0 **** -0.82
9719 H 38.96438306146512 37.87763374929053 9.958578130704192 H 0.0 **** 0.41
9720 H 37.92136324379802 38.73266959831492 9.123971217642321 H 0.0 **** 0.41
9721 O 9.930763710995464 47.33041069880886 0.1988672444826614 O 0.0 **** -0.82
9722 H 10.32993549902092 46.47710500624733 0.6938171875705743 H 0.0 **** 0.41
9723 H 10.31548668580605 47.26079524629632 -0.7634360645218976 H 0.0 **** 0.41
9724 O 41.1183086624259 14.693312278584278 27.973155417365568 O 0.0 **** -0.82
9725 H 41.685964958174864 15.53326901931188 28.173478489565248 H 0.0 **** 0.41
9726 H 41.30357079272581 14.353897769637637 27.05708334857337 H 0.0 **** 0.41
9727 O 34.354487067506355 32.807338690338916 30.727774686155236 O 0.0 **** -0.82
9728 H 35.18005060177558 32.32493955270522 30.31291052536541 H 0.0 **** 0.41
9729 H 33.93813689141923 33.45204692468292 30.025474052421785 H 0.0 **** 0.41
9730 O 17.54529736763712 48.402684558035524 8.489437128226825 O 0.0 **** -0.82
9731 H 17.25931599161126 49.27957805776991 8.792673838582488 H 0.0 **** 0.41
9732 H 16.77285194178461 47.87221792199411 8.308479816446209 H 0.0 **** 0.41
9733 O 30.430070632285137 43.385480362496786 27.982218283890116 O 0.0 **** -0.82
9734 H 30.269988473946157 43.81090995557983 28.943575638522542 H 0.0 **** 0.41
9735 H 30.989838627712572 44.02572759243351 27.48757335869082 H 0.0 **** 0.41
9736 O 19.59749997835699 35.586189217856464 6.530156494721638 O 0.0 **** -0.82
9737 H 20.306721832847163 34.92237294443135 6.81807568425446 H 0.0 **** 0.41
9738 H 19.814409859741716 36.387796711643944 7.093353542838869 H 0.0 **** 0.41
9739 O 43.678478329649025 7.014250932251301 27.033967823474697 O 0.0 **** -0.82
9740 H 43.37283568487454 6.1404753552547575 26.724900148371518 H 0.0 **** 0.41
9741 H 44.40187074355004 7.27682593787263 26.427422803140388 H 0.0 **** 0.41
9742 O 23.649805118112127 45.731972140914145 1.6869521314239824 O 0.0 **** -0.82
9743 H 24.066637858338247 46.58104053997412 1.9040313375252986 H 0.0 **** 0.41
9744 H 24.043838913555796 45.10011188654693 2.376729115025239 H 0.0 **** 0.41
9745 O 31.28275866935865 13.458285569500761 22.70798426239922 O 0.0 **** -0.82
9746 H 31.41404326430824 13.20283741522888 23.70416281320697 H 0.0 **** 0.41
9747 H 30.335003775319183 13.26221959558623 22.542084666036228 H 0.0 **** 0.41
9748 O 47.73345086746261 45.57158746833796 26.00578739016596 O 0.0 **** -0.82
9749 H 47.53146870818241 46.42902913287768 25.48089429957126 H 0.0 **** 0.41
9750 H 48.62978009678934 45.81369342471281 26.473471866042946 H 0.0 **** 0.41
9751 O 37.90075892779894 46.645527649664466 48.273072260380594 O 0.0 **** -0.82
9752 H 38.07335424330508 46.740583942720946 47.28322184044408 H 0.0 **** 0.41
9753 H 36.93604482447752 46.65197201926584 48.461497743640514 H 0.0 **** 0.41
9754 O 49.37577307266511 15.885908557744829 8.83458989755757 O 0.0 **** -0.82
9755 H 49.82989402600157 16.798909127131644 8.746671077224441 H 0.0 **** 0.41
9756 H 49.447531858840215 15.404939270439211 7.903793904438096 H 0.0 **** 0.41
9757 O 16.993836244355208 19.05799019226241 8.79778668919476 O 0.0 **** -0.82
9758 H 17.97745401339364 18.84126544184074 8.526041218106636 H 0.0 **** 0.41
9759 H 16.787330892280544 19.972190517555276 8.427631592451203 H 0.0 **** 0.41
9760 O 32.39532093325849 8.007150228584138 40.01374940996273 O 0.0 **** -0.82
9761 H 32.759182622979495 8.857056306672249 40.41215981302194 H 0.0 **** 0.41
9762 H 31.77097974288315 7.604449238942237 40.648181833031906 H 0.0 **** 0.41
9763 O 32.90196071747845 21.359143851257596 12.446141652501879 O 0.0 **** -0.82
9764 H 32.97069082711668 21.731421333081887 13.371900510250603 H 0.0 **** 0.41
9765 H 32.0856879507538 21.791996423253572 11.962136403288376 H 0.0 **** 0.41
9766 O 0.02124904580671938 22.348152170472225 7.221036247778832 O 0.0 **** -0.82
9767 H 0.7572209716150553 21.81544472658581 6.834300375329445 H 0.0 **** 0.41
9768 H 0.37853255564994015 23.14440549731527 7.7708889371273075 H 0.0 **** 0.41
9769 O 5.27782511499268 17.232849614151462 26.24563419366655 O 0.0 **** -0.82
9770 H 4.811125755558862 17.8117533854615 26.98043097786223 H 0.0 **** 0.41
9771 H 4.851541136101432 17.208892524364074 25.337470345529443 H 0.0 **** 0.41
9772 O 32.59121145249681 31.707735505062246 5.700111890635638 O 0.0 **** -0.82
9773 H 33.04302533874389 31.763060982704218 4.784685587654673 H 0.0 **** 0.41
9774 H 33.03601307188554 30.910276301748127 6.173286575236608 H 0.0 **** 0.41
9775 O 48.774629844671225 13.633907242388112 10.550626278690704 O 0.0 **** -0.82
9776 H 48.02557263214061 13.483318162134687 9.830481147195387 H 0.0 **** 0.41
9777 H 49.271153057563936 14.44149388572741 10.203604477229758 H 0.0 **** 0.41
9778 O 11.543294884922043 40.433714481998045 33.0332869735786 O 0.0 **** -0.82
9779 H 12.247580308369757 41.12746300998641 33.17848052162698 H 0.0 **** 0.41
9780 H 11.39409656557671 40.44022981216 31.97828580777543 H 0.0 **** 0.41
9781 O 26.0322919351677 32.930934028823025 30.554241935423303 O 0.0 **** -0.82
9782 H 26.638579268934404 32.91162710281995 31.353550695719786 H 0.0 **** 0.41
9783 H 26.279083817639354 33.68055182737942 29.955906679044666 H 0.0 **** 0.41
9784 O 2.5829689235814186 46.73384609415471 4.234063907153792 O 0.0 **** -0.82
9785 H 2.7188464812688835 45.71654223687966 4.486085498665819 H 0.0 **** 0.41
9786 H 3.0240197130368855 47.10726636260433 5.077279951029394 H 0.0 **** 0.41
9787 O 45.54801853432963 29.95576478806991 28.340677244165008 O 0.0 **** -0.82
9788 H 46.23821900246074 30.457510777065423 28.868302745981794 H 0.0 **** 0.41
9789 H 45.13405358083423 30.610660194065623 27.709909444235393 H 0.0 **** 0.41
9790 O 0.5581275092127382 42.293586605114285 46.15925737604937 O 0.0 **** -0.82
9791 H 0.7449583636877435 41.42965355740695 46.56014978263318 H 0.0 **** 0.41
9792 H 1.12285405855395 42.879805394719035 46.664771046390904 H 0.0 **** 0.41
9793 O 48.270757170022186 14.417555318988505 32.723271158850636 O 0.0 **** -0.82
9794 H 48.00108391006032 15.028392639265347 33.55060889662941 H 0.0 **** 0.41
9795 H 49.26752211956346 14.606451098875944 32.601455346185354 H 0.0 **** 0.41
9796 O 12.533864853847952 5.654780922591165 43.556674808226724 O 0.0 **** -0.82
9797 H 13.445987127621926 6.060488858318749 43.69301020468449 H 0.0 **** 0.41
9798 H 11.836133056768901 6.220037652501873 43.98791991074933 H 0.0 **** 0.41
9799 O 17.509024095837674 34.47925875612204 17.61093629577303 O 0.0 **** -0.82
9800 H 18.394890056738873 34.44527012912736 17.137095094315583 H 0.0 **** 0.41
9801 H 17.381373632663923 35.43945217532846 17.74759149732415 H 0.0 **** 0.41
9802 O 39.93813439490417 46.215980341899595 5.865355413590571 O 0.0 **** -0.82
9803 H 40.79714488606545 46.78782159074707 5.681019516033302 H 0.0 **** 0.41
9804 H 39.4660481682012 46.26718632935566 4.981394997286564 H 0.0 **** 0.41
9805 O 3.4680280802109227 9.73617173230895 27.91813534382631 O 0.0 **** -0.82
9806 H 3.4459812894739223 8.877966541928124 27.49333399384804 H 0.0 **** 0.41
9807 H 3.613634978640193 10.31528049379499 27.12417657346594 H 0.0 **** 0.41
9808 O 33.27277626105359 12.777410381635397 11.85230504405141 O 0.0 **** -0.82
9809 H 32.771204862850546 12.813755295432388 10.966615129802255 H 0.0 **** 0.41
9810 H 33.923563439024086 11.970490568735768 11.749619035387163 H 0.0 **** 0.41
9811 O 4.155979704096218 13.704967741924786 5.17613465979622 O 0.0 **** -0.82
9812 H 3.697217415761216 12.968334881664182 5.747369968990191 H 0.0 **** 0.41
9813 H 4.33592594736816 13.236851663406531 4.2910048751682135 H 0.0 **** 0.41
9814 O 9.97022001395853 31.001629332375533 25.926901750784193 O 0.0 **** -0.82
9815 H 10.382466194481285 30.154408066816167 26.36068959851998 H 0.0 **** 0.41
9816 H 10.582150621590792 31.805053496936075 26.019490418752344 H 0.0 **** 0.41
9817 O 19.864531784122082 34.186997318489084 12.347911442682111 O 0.0 **** -0.82
9818 H 20.093855239828173 34.88496779171664 13.122971374318563 H 0.0 **** 0.41
9819 H 20.489979747955037 34.553824607487385 11.609269694695856 H 0.0 **** 0.41
9820 O 0.6376509530538221 19.977233673139608 11.266443896192584 O 0.0 **** -0.82
9821 H -0.0299838951017648 20.27344730006027 11.962441362409923 H 0.0 **** 0.41
9822 H 0.6516460772610597 18.96820955737205 11.396815294801863 H 0.0 **** 0.41
9823 O 35.96962228659285 23.71188965096348 15.30500426175594 O 0.0 **** -0.82
9824 H 36.07397080491129 23.66906764041725 16.317020448974688 H 0.0 **** 0.41
9825 H 36.853293292562945 24.07357008924557 15.095568725659717 H 0.0 **** 0.41
9826 O 20.003572767645068 42.34653897342509 20.831040620254342 O 0.0 **** -0.82
9827 H 19.976595243190808 42.19583597145565 19.85634180336045 H 0.0 **** 0.41
9828 H 19.93287552509022 41.51040047108711 21.34959216919725 H 0.0 **** 0.41
9829 O 29.681720133375993 45.092209345706465 12.36083745201364 O 0.0 **** -0.82
9830 H 29.47330569887411 45.77027514211137 13.083657937240964 H 0.0 **** 0.41
9831 H 29.114344219863884 44.303443395017716 12.60674417391494 H 0.0 **** 0.41
9832 O 2.991686262091804 43.19470842096116 1.9544949163730578 O 0.0 **** -0.82
9833 H 3.13082735213726 42.205467230651294 2.0098321255576366 H 0.0 **** 0.41
9834 H 2.5310233764254093 43.469564110389996 1.1165067722658648 H 0.0 **** 0.41
9835 O 33.71693918190575 35.832876245453996 10.42724883614487 O 0.0 **** -0.82
9836 H 33.98567032993367 35.002843874011745 10.949834251174266 H 0.0 **** 0.41
9837 H 34.18377565810218 35.81986969149271 9.517553419032318 H 0.0 **** 0.41
9838 O 23.048994435623257 29.189153232273167 12.4769894359553 O 0.0 **** -0.82
9839 H 23.263179825923515 28.184156268103518 12.476295275967622 H 0.0 **** 0.41
9840 H 23.763392105347748 29.712674749728123 12.950387930912443 H 0.0 **** 0.41
9841 O 30.670637497931033 43.63237453849588 16.21121361431488 O 0.0 **** -0.82
9842 H 30.750280380064332 43.24062305892944 15.237187050115221 H 0.0 **** 0.41
9843 H 31.64558877516309 43.90365667065715 16.48710681745248 H 0.0 **** 0.41
9844 O 45.67007391947301 37.57194074996573 12.780942451300001 O 0.0 **** -0.82
9845 H 44.92336838694683 37.24063733302093 12.223719572078021 H 0.0 **** 0.41
9846 H 45.98960456518709 36.72624750300671 13.315150306876626 H 0.0 **** 0.41
9847 O 26.59428016784175 40.22246501034198 30.14372872079691 O 0.0 **** -0.82
9848 H 26.68181542164265 39.327050283862505 30.386653821142644 H 0.0 **** 0.41
9849 H 26.532269294589035 40.12091935345555 29.081114850360176 H 0.0 **** 0.41
9850 O 25.24632381047849 26.393138527050965 48.408927915361225 O 0.0 **** -0.82
9851 H 24.495674354237806 25.917804673140367 48.923705351863575 H 0.0 **** 0.41
9852 H 25.957500496632385 26.8474519202053 49.04242234709435 H 0.0 **** 0.41
9853 O 29.773181365736914 35.19186397539399 35.51529711985248 O 0.0 **** -0.82
9854 H 30.567856985278425 34.68178014143933 35.09567477844061 H 0.0 **** 0.41
9855 H 29.05220355889704 34.48540968473177 35.61288189056998 H 0.0 **** 0.41
9856 O 37.87441132903298 2.012962437883196 40.336473239517225 O 0.0 **** -0.82
9857 H 38.12644860421293 2.1586785817291227 39.37363611708164 H 0.0 **** 0.41
9858 H 36.873945300152485 2.07680594065744 40.36214292438524 H 0.0 **** 0.41
9859 O 1.931172343898101 46.65789086805981 36.417291769472065 O 0.0 **** -0.82
9860 H 1.1683044912974445 46.99417953405134 35.808979490311835 H 0.0 **** 0.41
9861 H 2.2103306033563235 47.45117659541756 36.99497352985378 H 0.0 **** 0.41
9862 O 34.636440104620235 46.99312733592126 43.477466611423786 O 0.0 **** -0.82
9863 H 34.079059808410335 47.883614343094095 43.41283823792043 H 0.0 **** 0.41
9864 H 35.59801225209735 47.298983322961426 43.41800423102353 H 0.0 **** 0.41
9865 O 9.354325205959597 8.48849818180058 39.56376990927366 O 0.0 **** -0.82
9866 H 9.461059532322658 8.113627147773485 40.52068008695827 H 0.0 **** 0.41
9867 H 10.255515092254988 8.375536863368623 39.25019285443477 H 0.0 **** 0.41
9868 O 38.087954590099606 21.657677480850964 30.3127134636309 O 0.0 **** -0.82
9869 H 37.783992967556905 20.696729278527613 30.34879464186396 H 0.0 **** 0.41
9870 H 39.09971318726898 21.71840106979414 30.16248291879009 H 0.0 **** 0.41
9871 O 29.246170754267485 28.97613512668775 32.26039999086164 O 0.0 **** -0.82
9872 H 28.257551670867183 28.709456639313046 32.144726133568874 H 0.0 **** 0.41
9873 H 29.68252482406065 28.90533099108686 31.33860968158735 H 0.0 **** 0.41
9874 O 24.523401751961558 44.891432803887966 25.2966283820869 O 0.0 **** -0.82
9875 H 24.313225872062503 44.18845603046466 24.525645123453067 H 0.0 **** 0.41
9876 H 25.344996111874025 44.389906494678556 25.734720738542876 H 0.0 **** 0.41
9877 O 27.4345375502779 28.36322999726889 21.49065323699641 O 0.0 **** -0.82
9878 H 28.117895171397038 28.233723003217065 22.208790368184427 H 0.0 **** 0.41
9879 H 26.939627472844247 29.20006122138247 21.786462879303922 H 0.0 **** 0.41
9880 O 40.73704035171916 47.94763791366299 23.159965650544425 O 0.0 **** -0.82
9881 H 40.271813286276185 47.27260850033302 23.756120661282562 H 0.0 **** 0.41
9882 H 40.0107933276297 48.5808534314328 22.891073747411152 H 0.0 **** 0.41
9883 O 36.06537480087653 34.88322249395391 22.380835621188016 O 0.0 **** -0.82
9884 H 36.412907792207065 34.75763582944379 21.377629146234444 H 0.0 **** 0.41
9885 H 35.67140362369914 35.831228608377394 22.273773991592982 H 0.0 **** 0.41
9886 O 41.30302270106834 46.30507103309328 8.448522885723362 O 0.0 **** -0.82
9887 H 40.666164133565545 45.736788878806756 7.847408508423843 H 0.0 **** 0.41
9888 H 41.67198827318034 45.70398951475541 9.130068731597184 H 0.0 **** 0.41
9889 O 15.727163855016911 28.305160944275695 31.06649208283349 O 0.0 **** -0.82
9890 H 16.1437836854181 28.626533460593308 31.96954734888007 H 0.0 **** 0.41
9891 H 16.293673863270925 27.587732665824177 30.68492394439697 H 0.0 **** 0.41
9892 O 42.57359335939183 27.435532046811574 44.70398748218175 O 0.0 **** -0.82
9893 H 41.63765244573621 27.690655807381688 44.47504731972468 H 0.0 **** 0.41
9894 H 43.05886096655361 26.973681485219373 43.90011008328246 H 0.0 **** 0.41
9895 O 40.88884427405103 2.806561522402035 38.698453376634454 O 0.0 **** -0.82
9896 H 40.00868533416281 2.4669462096055668 38.34424383121861 H 0.0 **** 0.41
9897 H 40.79420868058184 3.8171229454302065 38.644048945018596 H 0.0 **** 0.41
9898 O 22.02692620575901 42.05812791999693 42.850128905446944 O 0.0 **** -0.82
9899 H 21.177374968896917 41.9014486546625 43.38590529812423 H 0.0 **** 0.41
9900 H 22.589919578548624 42.595629364661534 43.53277736168146 H 0.0 **** 0.41
9901 O 28.183890425935505 9.73144613595344 30.82675660097616 O 0.0 **** -0.82
9902 H 27.82229947570791 8.794769636308189 30.844593010222393 H 0.0 **** 0.41
9903 H 27.461147709604067 10.334800925337987 31.180999346206015 H 0.0 **** 0.41
9904 O 22.602091208978266 45.933947193679096 6.390600173084245 O 0.0 **** -0.82
9905 H 22.125048256783487 45.094408563496714 6.167784469499942 H 0.0 **** 0.41
9906 H 22.10674823588156 46.704990778842976 5.963964128688147 H 0.0 **** 0.41
9907 O 0.4566415422135993 13.51251029824541 17.158019164564625 O 0.0 **** -0.82
9908 H 1.3843577451357478 13.495507666079227 17.52391747600999 H 0.0 **** 0.41
9909 H 0.44858847402497093 12.65697671965971 16.578916705469116 H 0.0 **** 0.41
9910 O 13.131984487071499 19.09873192955999 11.419709839710706 O 0.0 **** -0.82
9911 H 13.25193824804518 18.431933070972136 12.225144831786707 H 0.0 **** 0.41
9912 H 12.533479837391829 19.85104545219413 11.795343403369657 H 0.0 **** 0.41
9913 O 45.60335369724558 20.56431357227018 18.791993668032895 O 0.0 **** -0.82
9914 H 45.94618191269167 20.573622836004148 17.844218098187433 H 0.0 **** 0.41
9915 H 44.78399259225695 19.928762720331733 18.88323018185918 H 0.0 **** 0.41
9916 O 41.045715091496106 30.588464169490138 12.298195063887228 O 0.0 **** -0.82
9917 H 40.82095743841805 29.671331591874488 11.899093990182806 H 0.0 **** 0.41
9918 H 40.44261064930385 30.569234001338412 13.066963910076595 H 0.0 **** 0.41
9919 O 20.323912709022807 27.808099896849694 46.18803301460999 O 0.0 **** -0.82
9920 H 20.839118604970793 28.471634368389488 45.60410455292708 H 0.0 **** 0.41
9921 H 20.681149183145607 26.897630214912873 46.02132505815038 H 0.0 **** 0.41
9922 O 12.453774187205234 21.14286662008942 42.03432139092391 O 0.0 **** -0.82
9923 H 12.584195357426065 20.682328295641796 41.158344111293154 H 0.0 **** 0.41
9924 H 13.396888971728798 21.114064843680552 42.48238742440089 H 0.0 **** 0.41
9925 O 0.6771737373388108 4.384308721733776 24.61223055471897 O 0.0 **** -0.82
9926 H -0.2800580064551781 4.142821121857216 24.349222992271145 H 0.0 **** 0.41
9927 H 0.7632362437567977 4.684903553252272 25.51430767470748 H 0.0 **** 0.41
9928 O 18.30274623536124 12.544564671746187 41.50450732055892 O 0.0 **** -0.82
9929 H 19.280176148953032 12.760297278989341 41.537768526623886 H 0.0 **** 0.41
9930 H 17.947259289679465 12.851848624756109 40.5954562538922 H 0.0 **** 0.41
9931 O 0.9448987699209122 20.897497518929285 26.752584687292824 O 0.0 **** -0.82
9932 H 1.0189811008968284 21.310709266409802 25.835757442176302 H 0.0 **** 0.41
9933 H 1.5496464217101134 20.07486329209958 26.660311472701142 H 0.0 **** 0.41
9934 O 32.67974673111617 48.911614366105056 34.49541016867551 O 0.0 **** -0.82
9935 H 33.063690911347706 49.486659330309344 33.707234466927446 H 0.0 **** 0.41
9936 H 32.57083587609326 49.56951028342678 35.27751543378751 H 0.0 **** 0.41
9937 O 5.976447425227193 38.188339053866486 47.36324968022914 O 0.0 **** -0.82
9938 H 5.349916995912374 37.834694136639165 46.60151506384943 H 0.0 **** 0.41
9939 H 6.075327774375424 39.139704381280204 47.2191673920984 H 0.0 **** 0.41
9940 O 41.956255800228995 34.48900268933501 24.281509127239556 O 0.0 **** -0.82
9941 H 42.32549996554613 35.41817504604553 24.235190661290854 H 0.0 **** 0.41
9942 H 41.30568348729231 34.452433650719 23.523832347721665 H 0.0 **** 0.41
9943 O 30.53739260959486 27.060752723793517 21.531022268129966 O 0.0 **** -0.82
9944 H 30.95737553986664 27.97818443743431 21.687730282494893 H 0.0 **** 0.41
9945 H 30.32187467460554 27.09764485749745 20.538120410319625 H 0.0 **** 0.41
9946 O 19.987323824349076 12.935348347728393 31.055465020187476 O 0.0 **** -0.82
9947 H 19.317433035257906 12.468591980511668 30.373482046801076 H 0.0 **** 0.41
9948 H 20.902120285227625 13.04539185613907 30.550620799299736 H 0.0 **** 0.41
9949 O 29.100251768667512 13.2926962053711 41.81204071145627 O 0.0 **** -0.82
9950 H 29.332559143687426 12.293464223397478 41.79340410233886 H 0.0 **** 0.41
9951 H 29.441744459420452 13.605261959098385 42.736106207063806 H 0.0 **** 0.41
9952 O 35.0390273467059 12.158692207415783 23.12210354019183 O 0.0 **** -0.82
9953 H 34.79701532695084 13.091949058470455 22.829567878741983 H 0.0 **** 0.41
9954 H 34.63606615393441 11.596341084789358 22.41293557668024 H 0.0 **** 0.41
9955 O 25.53142683643958 32.03818643723661 8.705970895601974 O 0.0 **** -0.82
9956 H 25.731985236353644 31.644263317138407 9.666539959925684 H 0.0 **** 0.41
9957 H 26.381234169058562 32.570336185317345 8.469186037209225 H 0.0 **** 0.41
9958 O 39.27357755990807 4.204803628849199 18.328696053777705 O 0.0 **** -0.82
9959 H 39.24065474685529 3.4075657937505284 17.69554156602844 H 0.0 **** 0.41
9960 H 38.552177844250174 4.110425982447772 19.069453206023994 H 0.0 **** 0.41
9961 O 46.83945036157276 35.84970513470262 3.6509791556288196 O 0.0 **** -0.82
9962 H 47.1472431443053 36.39712189450875 4.444424583284018 H 0.0 **** 0.41
9963 H 47.11646341123351 36.37153454568459 2.8152572766981234 H 0.0 **** 0.41
9964 O 2.461429610887777 31.835556585950375 29.5396541700978 O 0.0 **** -0.82
9965 H 1.969084842571865 32.63521218495635 29.103884091655598 H 0.0 **** 0.41
9966 H 3.2400022866574325 32.31716981572258 29.923315077882602 H 0.0 **** 0.41
9967 O 12.69568244551684 28.349127613949307 29.037495008669055 O 0.0 **** -0.82
9968 H 12.221699209496395 27.52202823286015 29.410674900607948 H 0.0 **** 0.41
9969 H 13.386701692795413 28.07763566467954 28.323663620857292 H 0.0 **** 0.41
9970 O 38.14208827054943 15.567035871238405 1.81333895859958 O 0.0 **** -0.82
9971 H 37.76046618733894 16.530411086979907 1.7293185682039578 H 0.0 **** 0.41
9972 H 37.26795907580962 14.93804078644154 1.798773429297981 H 0.0 **** 0.41
9973 O 26.21024269745047 22.569213696256178 4.233903144790716 O 0.0 **** -0.82
9974 H 26.112284125612216 21.866588460828115 3.4477316033065506 H 0.0 **** 0.41
9975 H 25.91898786825629 22.10703022830346 5.105941204815025 H 0.0 **** 0.41
9976 O 25.359645008908114 26.252924147510083 25.642629913269197 O 0.0 **** -0.82
9977 H 24.82016053611472 26.698600452188703 26.335476862178655 H 0.0 **** 0.41
9978 H 25.22194848628982 25.260014960484533 25.690473145093264 H 0.0 **** 0.41
9979 O 39.30814714798076 47.383458372679 16.15334788183108 O 0.0 **** -0.82
9980 H 38.584293359435335 48.05523188635244 16.024744837216844 H 0.0 **** 0.41
9981 H 40.10368998984211 48.03272020239768 16.179862756560297 H 0.0 **** 0.41
9982 O 16.518459085885688 16.522979685129844 26.28185524833045 O 0.0 **** -0.82
9983 H 16.36890428844842 15.95840795265391 25.398225974883314 H 0.0 **** 0.41
9984 H 17.42993356692659 16.96596680530591 26.265655140135028 H 0.0 **** 0.41
9985 O 12.536617368800073 30.995480262836328 37.38822710309118 O 0.0 **** -0.82
9986 H 11.764139759766628 30.986053319295095 36.74557728773157 H 0.0 **** 0.41
9987 H 12.218943882702156 31.1808934306557 38.38560379158964 H 0.0 **** 0.41
9988 O 1.4305493034457157 24.622540141898448 24.491870185194312 O 0.0 **** -0.82
9989 H 0.5457906863199042 24.613982634561943 25.06590688530135 H 0.0 **** 0.41
9990 H 2.126639273479313 24.796114765109046 25.174573300332884 H 0.0 **** 0.41
9991 O 26.92604674387249 43.54412381554759 26.073244715539392 O 0.0 **** -0.82
9992 H 26.927544198979376 43.350741301257884 27.075686650850994 H 0.0 **** 0.41
9993 H 27.698202552986913 44.167832809907566 26.0642100985939 H 0.0 **** 0.41
9994 O 30.205309150066665 1.5681313994482835 41.51962818852235 O 0.0 **** -0.82
9995 H 29.97614946710634 1.5879687828468292 40.55139731581388 H 0.0 **** 0.41
9996 H 29.59924427658922 0.834453325530049 41.882992314899745 H 0.0 **** 0.41
9997 O 5.900889850372116 4.551286586546216 42.35085932544522 O 0.0 **** -0.82
9998 H 6.565342932492712 5.212586304132922 41.902467697187994 H 0.0 **** 0.41
9999 H 5.878992461787978 4.717352998916787 43.30517886723743 H 0.0 **** 0.41
10000 O 6.944753787045812 17.183109968243514 15.805624113794337 O 0.0 **** -0.82
10001 H 7.561142709077501 17.820813714521393 16.21409863745461 H 0.0 **** 0.41
10002 H 6.985499660788989 17.576186696665985 14.866485279892999 H 0.0 **** 0.41
10003 O 30.53268996322878 2.744730073057056 34.78388327111844 O 0.0 **** -0.82
10004 H 30.8428118464198 1.9965983281163346 35.422162905610264 H 0.0 **** 0.41
10005 H 30.45951243340624 3.363508544784864 35.603865386346996 H 0.0 **** 0.41
10006 O 39.08586554976477 33.92385004827334 2.8710268487652764 O 0.0 **** -0.82
10007 H 39.67877405259851 34.69906289650148 3.0748000405192495 H 0.0 **** 0.41
10008 H 38.413771292845695 33.79699784482344 3.667456999585595 H 0.0 **** 0.41
10009 O 44.83449021025279 34.17124955177806 4.343597505058933 O 0.0 **** -0.82
10010 H 45.65063055017458 34.7205873367615 4.13297646797568 H 0.0 **** 0.41
10011 H 45.17143801638909 33.49036651528188 5.011330219358193 H 0.0 **** 0.41
10012 O 14.101991610629767 37.53892134213381 6.0734126145434715 O 0.0 **** -0.82
10013 H 13.75916393438068 37.802356028048784 5.171275580701263 H 0.0 **** 0.41
10014 H 13.859926578455458 36.580737580054674 6.131851651760783 H 0.0 **** 0.41
10015 O 11.66013287613801 39.40872665543371 41.453256480850065 O 0.0 **** -0.82
10016 H 12.305249887270588 38.63006518749762 41.655528353738525 H 0.0 **** 0.41
10017 H 11.82365487170928 39.790924226759614 40.55659345796819 H 0.0 **** 0.41
10018 O 23.718472814312044 31.463346516457964 30.29078525888265 O 0.0 **** -0.82
10019 H 24.412672636606487 32.181611860574144 30.24307748424072 H 0.0 **** 0.41
10020 H 22.853152782835107 31.901836745721617 30.028949705773428 H 0.0 **** 0.41
10021 O 49.25486979979304 21.036183015905443 22.404212001193358 O 0.0 **** -0.82
10022 H 49.10609188829178 20.02722750023158 22.35210772517435 H 0.0 **** 0.41
10023 H 49.1618788512473 21.096788506190354 23.419363940758128 H 0.0 **** 0.41
10024 O 34.58552069511444 24.958996707812997 31.68069293412968 O 0.0 **** -0.82
10025 H 34.94111967282032 25.470659120509573 30.8783595489417 H 0.0 **** 0.41
10026 H 33.68264431143807 24.508149123478432 31.362882266157353 H 0.0 **** 0.41
10027 O 30.2434628613246 38.04742497397424 36.519366144209265 O 0.0 **** -0.82
10028 H 30.350415238926765 37.14291731316853 36.084525721247694 H 0.0 **** 0.41
10029 H 30.586538564973317 38.710800792319546 35.82378088819522 H 0.0 **** 0.41
10030 O 48.09938640937341 19.008486720474735 49.20358215347073 O 0.0 **** -0.82
10031 H 48.74246413792254 18.36051178685348 48.75435009307172 H 0.0 **** 0.41
10032 H 47.408362419197005 18.454279969908157 49.73896143086992 H 0.0 **** 0.41
10033 O 34.78017675814979 24.107238396642103 10.227236120994856 O 0.0 **** -0.82
10034 H 34.259958876699045 24.338896487303998 11.061286607809722 H 0.0 **** 0.41
10035 H 35.04378018691538 25.023064069795794 9.914164612507207 H 0.0 **** 0.41
10036 O 42.09065580808833 11.395169393164053 32.29561587452258 O 0.0 **** -0.82
10037 H 41.541435213441844 10.549298459218349 32.27669045959486 H 0.0 **** 0.41
10038 H 42.950661514163365 11.225428733175512 31.780744322026806 H 0.0 **** 0.41
10039 O 18.258411163282265 49.85296027457589 25.59410616860933 O 0.0 **** -0.82
10040 H 18.71888408444142 50.59269995932303 26.152267338791475 H 0.0 **** 0.41
10041 H 18.171721505294887 50.35741381257195 24.77104914185996 H 0.0 **** 0.41
10042 O 42.47408360279464 40.18903090063424 8.330803410848544 O 0.0 **** -0.82
10043 H 42.44383543383577 39.29159204622053 8.769542719411593 H 0.0 **** 0.41
10044 H 41.50519566061499 40.376171004190844 8.06034669758143 H 0.0 **** 0.41
10045 O 15.284668717397563 3.790724285349384 14.112121440402248 O 0.0 **** -0.82
10046 H 15.831973151855804 3.698874967241963 14.947066408107986 H 0.0 **** 0.41
10047 H 14.496531983722901 3.1959080621661684 14.383237260688574 H 0.0 **** 0.41
10048 O 45.370299837519134 14.2760060598076 43.26931224884762 O 0.0 **** -0.82
10049 H 46.06382252210815 15.005691903446504 43.46165715578111 H 0.0 **** 0.41
10050 H 45.66682474447282 13.423156244868153 43.72523823664804 H 0.0 **** 0.41
10051 O 37.560564312031005 37.92134677216265 20.012487545027692 O 0.0 **** -0.82
10052 H 37.59994223763328 38.90341475853175 19.91447436409798 H 0.0 **** 0.41
10053 H 36.89705421487882 37.59053470592829 19.31276201155606 H 0.0 **** 0.41
10054 O 23.705899801090347 21.830265728364363 48.17333408789101 O 0.0 **** -0.82
10055 H 23.178775683442947 20.98828116513808 47.90485990712104 H 0.0 **** 0.41
10056 H 23.307645696211114 22.608558433022555 47.69293459844197 H 0.0 **** 0.41
10057 O 11.943261509345163 34.77479081575086 17.29972171979678 O 0.0 **** -0.82
10058 H 12.627681123512644 35.4818962741853 17.08193274514592 H 0.0 **** 0.41
10059 H 11.271623421330276 34.77220236113488 16.49070950542803 H 0.0 **** 0.41
10060 O 46.87616212381171 11.470079419480365 38.518532153267934 O 0.0 **** -0.82
10061 H 47.72082812798186 11.972207218818905 38.635761650799196 H 0.0 **** 0.41
10062 H 47.11358730468095 10.555181203619817 38.881970870242455 H 0.0 **** 0.41
10063 O 34.35514145601914 10.721093668608889 2.062213914898841 O 0.0 **** -0.82
10064 H 34.99691764529943 10.859422811044404 1.319956123257242 H 0.0 **** 0.41
10065 H 33.88913752582505 11.578124019195261 2.2936046589421863 H 0.0 **** 0.41
10066 O 23.807601527080656 15.62640833404366 49.80881117836094 O 0.0 **** -0.82
10067 H 23.633924542856086 15.172183482183826 50.728049465783315 H 0.0 **** 0.41
10068 H 24.608160409635197 15.144687827744377 49.35763849381068 H 0.0 **** 0.41
10069 O 49.70499044532819 10.582684019405576 34.331232712252934 O 0.0 **** -0.82
10070 H 50.292288284105744 10.68564831185072 35.14871996260783 H 0.0 **** 0.41
10071 H 48.81199722806175 10.185433280072402 34.630871366164286 H 0.0 **** 0.41
10072 O 7.066667705281375 8.187857584363833 32.85400001022376 O 0.0 **** -0.82
10073 H 6.346380151966613 7.46978582045934 32.54228881458684 H 0.0 **** 0.41
10074 H 6.984950568095485 8.945147503110803 32.20187774788845 H 0.0 **** 0.41
10075 O 15.442909439184989 3.6535387188999255 41.046360140831375 O 0.0 **** -0.82
10076 H 16.014612162613204 4.301503970753258 40.542999664109594 H 0.0 **** 0.41
10077 H 15.155249488735697 2.887598648460344 40.404521471169694 H 0.0 **** 0.41
10078 O 32.05255747251702 33.88936372880717 34.51091388967934 O 0.0 **** -0.82
10079 H 32.2279284677737 34.54603067627869 33.767619756678755 H 0.0 **** 0.41
10080 H 32.54239554239045 33.07982934828968 34.143448319898226 H 0.0 **** 0.41
10081 O 21.436232438723295 21.862325072299736 42.441561824975075 O 0.0 **** -0.82
10082 H 21.325942988301534 21.563455531534654 41.511970653153995 H 0.0 **** 0.41
10083 H 21.69916575997405 22.76898620367203 42.11654879132384 H 0.0 **** 0.41
10084 O 10.47142726124584 47.55354649203618 42.78884352866386 O 0.0 **** -0.82
10085 H 9.580609567425157 47.95663883527314 42.84143348323076 H 0.0 **** 0.41
10086 H 11.075659263641205 48.39541322410937 42.709601262680735 H 0.0 **** 0.41
10087 O 25.842212562457714 36.6821589969269 18.857326934629228 O 0.0 **** -0.82
10088 H 25.891046071550413 37.67820657073787 18.631788463957335 H 0.0 **** 0.41
10089 H 26.713810129336107 36.33550531678356 18.650603751778572 H 0.0 **** 0.41
10090 O 39.92527598950126 10.422556739314281 42.71773138696349 O 0.0 **** -0.82
10091 H 40.88577902408808 10.687786273417615 42.660808765793604 H 0.0 **** 0.41
10092 H 39.91625924003401 9.417697671213638 42.67556758485693 H 0.0 **** 0.41
10093 O 15.4683004612136 9.88836730374233 0.6625169759133911 O 0.0 **** -0.82
10094 H 16.194097934867454 9.19495630371269 0.7529865877504918 H 0.0 **** 0.41
10095 H 15.939012284788161 10.708183956112975 0.982060880795899 H 0.0 **** 0.41
10096 O 13.247487708295546 1.072392344117195 2.7689167289467274 O 0.0 **** -0.82
10097 H 13.22638487065295 0.2533455529675803 3.39439589710499 H 0.0 **** 0.41
10098 H 12.375884205961158 1.4637814310878674 2.9160008308348577 H 0.0 **** 0.41
10099 O 38.55742419968848 14.760876817853799 29.2949837590738 O 0.0 **** -0.82
10100 H 38.03015483061242 14.365817392618666 28.461956934641417 H 0.0 **** 0.41
10101 H 39.546757098963084 14.771492856562357 29.026756864911857 H 0.0 **** 0.41
10102 O 43.62742298379087 4.653814099689014 21.28580441615314 O 0.0 **** -0.82
10103 H 44.52394554293417 4.9953117148621695 20.874551694164555 H 0.0 **** 0.41
10104 H 43.78010354078711 4.4301994730115055 22.215886826878858 H 0.0 **** 0.41
10105 O 19.490208619318537 0.6182985239009184 5.916633776876573 O 0.0 **** -0.82
10106 H 18.97624985815136 0.6481201553113678 6.829152624701649 H 0.0 **** 0.41
10107 H 18.925496992176587 0.30611138636235324 5.124639655754628 H 0.0 **** 0.41
10108 O 36.73919951182407 2.3755316598602567 17.045784441273614 O 0.0 **** -0.82
10109 H 36.619194545963694 3.317291688968819 16.592785224832994 H 0.0 **** 0.41
10110 H 36.83927330524262 2.5719311402973064 18.04103741735218 H 0.0 **** 0.41
10111 O 47.838671874350496 43.52370582007004 17.587548210127068 O 0.0 **** -0.82
10112 H 46.94161283717203 43.22229022472603 17.302119887825338 H 0.0 **** 0.41
10113 H 47.79897664837604 44.29796299699347 18.233726784656678 H 0.0 **** 0.41
10114 O 47.11485617837204 13.640396446988245 41.27932570205562 O 0.0 **** -0.82
10115 H 46.31416112009491 13.56347967411074 41.93460529104306 H 0.0 **** 0.41
10116 H 47.19744753633296 14.568640389237492 40.91806451886501 H 0.0 **** 0.41
10117 O 28.820384024065184 31.9249719740993 12.4553562680302 O 0.0 **** -0.82
10118 H 29.790865042159155 31.8023340386986 12.120244906498272 H 0.0 **** 0.41
10119 H 28.828996189781087 32.85908153476452 12.919267485258189 H 0.0 **** 0.41
10120 O 23.534695026150636 21.877978248545748 11.116505505140225 O 0.0 **** -0.82
10121 H 22.83280601889692 22.53268434167155 11.336025318390597 H 0.0 **** 0.41
10122 H 23.84776797807134 22.20607074805713 10.246164199542072 H 0.0 **** 0.41
10123 O 44.77695787963647 13.456664811301565 33.65853118863618 O 0.0 **** -0.82
10124 H 44.24203396815447 13.70001906562959 32.83023997543747 H 0.0 **** 0.41
10125 H 44.30403838119154 13.763548088140048 34.4526260454353 H 0.0 **** 0.41
10126 O 20.467257831200868 49.27678568861965 47.509418121053365 O 0.0 **** -0.82
10127 H 21.186223372460105 49.97973590036198 47.741299951664914 H 0.0 **** 0.41
10128 H 21.019320964281107 48.42723716184663 47.49332764553508 H 0.0 **** 0.41
10129 O 30.988641811915727 27.10970983435315 28.60868837234607 O 0.0 **** -0.82
10130 H 31.0475729742884 26.995888188345226 27.560696405941083 H 0.0 **** 0.41
10131 H 31.909760474174025 26.855908939779432 29.0122222948706 H 0.0 **** 0.41
10132 O 47.70127190401937 9.390183692693185 42.72353563544902 O 0.0 **** -0.82
10133 H 47.75341199074767 8.39087431416931 43.01672462610164 H 0.0 **** 0.41
10134 H 48.67537306454642 9.707112973446193 42.52578806002605 H 0.0 **** 0.41
10135 O 49.517388088946404 12.237945398353702 39.09113351489191 O 0.0 **** -0.82
10136 H 50.25850960715555 12.974954303452035 39.369004990900095 H 0.0 **** 0.41
10137 H 49.66930005611502 11.412720036566254 39.72001543603021 H 0.0 **** 0.41
10138 O 28.13825361534244 1.1157004101964887 1.3016658824809118 O 0.0 **** -0.82
10139 H 27.835235715269 1.2194624540197054 0.3361398064772737 H 0.0 **** 0.41
10140 H 27.64758439535391 1.9078228355421842 1.6512053767316284 H 0.0 **** 0.41
10141 O 13.504332418948529 42.338187189992446 47.654552005085655 O 0.0 **** -0.82
10142 H 12.905392140210502 42.99607106523367 47.21401250996875 H 0.0 **** 0.41
10143 H 13.842168821907539 41.8481696227821 46.8367976879029 H 0.0 **** 0.41
10144 O 45.77678139959147 39.53256553783234 28.516175827668718 O 0.0 **** -0.82
10145 H 45.59748270915688 39.92817203486949 27.597271667661474 H 0.0 **** 0.41
10146 H 45.09526692290613 38.789885422867584 28.5894113574934 H 0.0 **** 0.41
10147 O 3.719535793277631 37.6298454628703 0.11216919149511284 O 0.0 **** -0.82
10148 H 4.196960827306303 36.93571304376906 0.6843829108623396 H 0.0 **** 0.41
10149 H 4.447252458340479 38.03576007521799 -0.45810766198765407 H 0.0 **** 0.41
10150 O 15.097478767823185 19.16113302913098 36.1490414633097 O 0.0 **** -0.82
10151 H 15.446478095153404 18.353430718925466 35.70269735734682 H 0.0 **** 0.41
10152 H 14.116672234131594 19.193343266715715 35.89740833029026 H 0.0 **** 0.41
10153 O 14.441306295339487 45.49902839091057 48.223359387020395 O 0.0 **** -0.82
10154 H 15.413961756694249 45.1711485226917 48.10047726246239 H 0.0 **** 0.41
10155 H 14.463010889529869 46.443918740311176 47.88434653154751 H 0.0 **** 0.41
10156 O 20.317396432433355 36.110549454230124 14.280082208488054 O 0.0 **** -0.82
10157 H 20.231312687976402 37.13717453079486 14.022905245741848 H 0.0 **** 0.41
10158 H 20.25762831110312 36.05972616871444 15.265675401927162 H 0.0 **** 0.41
10159 O 44.93832043886313 21.953265179958066 34.749246941040724 O 0.0 **** -0.82
10160 H 44.92355067265717 20.958048801771994 34.99569791790495 H 0.0 **** 0.41
10161 H 44.32779585428901 22.081258886688218 33.93455609934725 H 0.0 **** 0.41
10162 O 8.747162375203958 31.471664403672627 32.08961966674554 O 0.0 **** -0.82
10163 H 9.567736167115386 31.90290161535209 32.54459616710966 H 0.0 **** 0.41
10164 H 8.60647160336837 31.934616267549266 31.20878518543159 H 0.0 **** 0.41
10165 O 38.442378082409085 24.973130019168774 6.0030678759600855 O 0.0 **** -0.82
10166 H 39.37983279889033 24.84836927578641 5.615449360138698 H 0.0 **** 0.41
10167 H 37.910374144173076 25.608378347932348 5.352879210949009 H 0.0 **** 0.41
10168 O 8.45847764868922 36.9764395473715 31.31930192041603 O 0.0 **** -0.82
10169 H 9.095467658894096 36.912783104945845 32.14179960649832 H 0.0 **** 0.41
10170 H 7.949773855506156 37.88501666771384 31.358608981295696 H 0.0 **** 0.41
10171 O 24.85764758108465 34.43327008218279 19.74413034962488 O 0.0 **** -0.82
10172 H 23.940417714623038 34.41586814199551 20.20668172853969 H 0.0 **** 0.41
10173 H 25.015907642227702 35.4330244115353 19.4606758626512 H 0.0 **** 0.41
10174 O 17.654844459308052 10.4348839566787 19.018094845197055 O 0.0 **** -0.82
10175 H 18.09523395697131 11.050516131622976 18.336314543849767 H 0.0 **** 0.41
10176 H 16.714683207266148 10.245999024751427 18.716525053013402 H 0.0 **** 0.41
10177 O 45.92865667540073 33.19762160134648 9.61491436043032 O 0.0 **** -0.82
10178 H 46.61220865408136 33.7200706849788 10.145134103843322 H 0.0 **** 0.41
10179 H 46.22243696402974 32.24330945992366 9.718598725433267 H 0.0 **** 0.41
10180 O 8.685738217956809 21.781927940698807 12.382747772202713 O 0.0 **** -0.82
10181 H 8.318068421722213 22.634322046459197 11.917020302899104 H 0.0 **** 0.41
10182 H 8.372374137943075 21.046285667203342 11.802906342062101 H 0.0 **** 0.41
10183 O 16.484540751942724 11.049723986630895 14.069784439631794 O 0.0 **** -0.82
10184 H 16.025868588725118 10.312799912012906 14.70394591681669 H 0.0 **** 0.41
10185 H 15.813323112217267 10.968202045619478 13.35009484329354 H 0.0 **** 0.41
10186 O 8.766085253614285 7.354720764557525 46.11395469683988 O 0.0 **** -0.82
10187 H 8.267636283500678 8.236571509142797 46.0878932988556 H 0.0 **** 0.41
10188 H 8.415559174387603 6.783196408233604 45.33928316019974 H 0.0 **** 0.41
10189 O 10.796977693783651 37.589497398595725 33.060395047492634 O 0.0 **** -0.82
10190 H 11.697457928287735 37.551615228084614 32.56844054918262 H 0.0 **** 0.41
10191 H 10.91622060457013 38.61803361386295 33.23052526903623 H 0.0 **** 0.41
10192 O 19.62039402113543 26.55106686828705 28.271488810934873 O 0.0 **** -0.82
10193 H 19.87908188619675 25.594352541216537 28.00872211339082 H 0.0 **** 0.41
10194 H 20.528831454269017 26.91001769385214 28.42967697534857 H 0.0 **** 0.41
10195 O 22.3746495110182 21.80035222374219 2.2106302073436126 O 0.0 **** -0.82
10196 H 22.247054938193617 22.12624030340837 1.2652303849760642 H 0.0 **** 0.41
10197 H 21.964195591813755 22.551552516603138 2.775168961673785 H 0.0 **** 0.41
10198 O 42.41053822455376 33.87896621219679 35.69995357663132 O 0.0 **** -0.82
10199 H 41.71924364744311 33.12964599587277 35.755155276973035 H 0.0 **** 0.41
10200 H 43.31211265936769 33.45958448026515 35.927775878426765 H 0.0 **** 0.41
10201 O 12.916127573474945 23.23567387166034 49.585716683730624 O 0.0 **** -0.82
10202 H 13.170230907237132 22.404154661986205 50.00942552789807 H 0.0 **** 0.41
10203 H 13.365812670570564 23.951803297490677 50.16337444034618 H 0.0 **** 0.41
10204 O 30.690750854401433 18.77386958584234 22.58297831807569 O 0.0 **** -0.82
10205 H 30.112480490204923 18.96809813748567 23.40423695514773 H 0.0 **** 0.41
10206 H 30.748243562501834 17.732851163567144 22.628614640988832 H 0.0 **** 0.41
10207 O 29.159566918889706 2.2865996204153816 13.346726855173731 O 0.0 **** -0.82
10208 H 28.642199487703344 2.2544250846416807 12.477736799389296 H 0.0 **** 0.41
10209 H 29.092553412164353 3.2413276827344446 13.740448488132369 H 0.0 **** 0.41
10210 O 15.663517606472297 2.1976365827904303 12.022738947741153 O 0.0 **** -0.82
10211 H 14.655435592358302 2.044970256084987 12.033560767818225 H 0.0 **** 0.41
10212 H 15.899502914114436 2.5723042139340606 12.949766277567035 H 0.0 **** 0.41
10213 O 2.1454305664901625 45.28069623800868 16.34597150510714 O 0.0 **** -0.82
10214 H 2.4350854341539048 46.08709672088642 15.791576630054546 H 0.0 **** 0.41
10215 H 2.8365939829529694 44.61721476747795 16.005549210808546 H 0.0 **** 0.41
10216 O 24.410555562955818 24.6873310852245 4.597814821993296 O 0.0 **** -0.82
10217 H 25.227432112086795 24.06826855373191 4.727563805135638 H 0.0 **** 0.41
10218 H 23.545082585109483 24.21658991373286 4.447657313264706 H 0.0 **** 0.41
10219 O 8.319365287687829 19.171620750840724 16.85759202672179 O 0.0 **** -0.82
10220 H 9.151237189340364 19.29367602906449 17.46519327431031 H 0.0 **** 0.41
10221 H 8.388712442521449 19.770836304085062 16.0217329022354 H 0.0 **** 0.41
10222 O 40.953375855146604 10.779260080986418 22.07606383202149 O 0.0 **** -0.82
10223 H 40.78550631272817 11.695728352055697 22.573565619305807 H 0.0 **** 0.41
10224 H 40.271644312786265 10.230504520176034 22.568233027709145 H 0.0 **** 0.41
10225 O 46.57106967357834 24.0171687159385 42.580812854331604 O 0.0 **** -0.82
10226 H 46.424386552808116 24.853940030054666 42.02763660589395 H 0.0 **** 0.41
10227 H 46.86030625501112 24.342013173889747 43.47536014416144 H 0.0 **** 0.41
10228 O 27.2250778564968 15.378467265927767 37.18576489836454 O 0.0 **** -0.82
10229 H 28.204392264280806 15.119181643011686 37.398792677219696 H 0.0 **** 0.41
10230 H 26.783614821092268 14.50915941327159 37.24750393266262 H 0.0 **** 0.41
10231 O 34.70999379297585 19.01214772735443 4.996347876426633 O 0.0 **** -0.82
10232 H 35.63323222439654 19.302523994060724 4.62409591799769 H 0.0 **** 0.41
10233 H 34.499169045920574 18.198959493549328 4.400906120082269 H 0.0 **** 0.41
10234 O 41.03970172325921 27.103546115894957 16.496616094445315 O 0.0 **** -0.82
10235 H 40.79005222249706 27.628986525226942 17.31265194561717 H 0.0 **** 0.41
10236 H 40.45722918637412 26.26367410600484 16.6760092152125 H 0.0 **** 0.41
10237 O 11.242060409393158 28.30852649566198 38.88548670215906 O 0.0 **** -0.82
10238 H 12.010627715612006 28.38960194249418 38.220237363350755 H 0.0 **** 0.41
10239 H 11.452288666947826 27.443064820099664 39.438309638867665 H 0.0 **** 0.41
10240 O 49.98003425681221 11.066663935127778 31.154815783938616 O 0.0 **** -0.82
10241 H 49.84876004938308 10.620963122842262 32.03522760078891 H 0.0 **** 0.41
10242 H 50.88508577429376 10.911955184667363 30.738688380528767 H 0.0 **** 0.41
10243 O 1.1802101658662278 45.13877196407003 20.28153778358881 O 0.0 **** -0.82
10244 H 1.3970799879813915 44.479682769362064 21.035722968884166 H 0.0 **** 0.41
10245 H 2.0175365832175447 45.03904644331496 19.67965561511495 H 0.0 **** 0.41
10246 O 22.737051245700492 0.949828249198319 17.588690623799263 O 0.0 **** -0.82
10247 H 22.187759079455873 0.10912479766938077 17.746807646598022 H 0.0 **** 0.41
10248 H 23.580300169950327 0.5762261786341796 17.0047829809631 H 0.0 **** 0.41
10249 O 43.838556443039245 42.5157190624545 8.781486769755812 O 0.0 **** -0.82
10250 H 44.83814288345298 42.48452610390224 8.996850945083082 H 0.0 **** 0.41
10251 H 43.5652344145274 41.594306056406026 8.448995972657215 H 0.0 **** 0.41
10252 O 25.657813562799475 21.43997110539063 33.95720492816284 O 0.0 **** -0.82
10253 H 25.150821524893274 21.607187288854167 33.11943971649368 H 0.0 **** 0.41
10254 H 25.87875976788267 22.40246199730544 34.224629198049534 H 0.0 **** 0.41
10255 O 29.156875790675016 25.317485465614737 15.805245623422769 O 0.0 **** -0.82
10256 H 28.325862655459325 25.264162721387606 15.199645623754733 H 0.0 **** 0.41
10257 H 29.55001662808637 26.2394751280046 15.742817443039135 H 0.0 **** 0.41
10258 O 11.42058039858149 25.084420560943194 33.67613781958499 O 0.0 **** -0.82
10259 H 11.143607625768093 25.97863117010821 33.35353941382718 H 0.0 **** 0.41
10260 H 11.579770020800265 25.20685254849191 34.681022956455976 H 0.0 **** 0.41
10261 O 43.71627869850386 26.420144672000113 42.595097763099744 O 0.0 **** -0.82
10262 H 43.40074189148441 25.48698602227418 42.34020379023967 H 0.0 **** 0.41
10263 H 44.47362208589252 26.57343347923823 41.90114346940988 H 0.0 **** 0.41
10264 O 21.381626394511233 16.138648369715355 36.84416020770716 O 0.0 **** -0.82
10265 H 21.356416050867345 15.767111286044113 35.958637018057686 H 0.0 **** 0.41
10266 H 22.297484784252763 16.32524856909515 37.10655110697835 H 0.0 **** 0.41
10267 O 49.53339478350687 20.001330014667616 14.232300591761922 O 0.0 **** -0.82
10268 H 50.50966136664478 19.92184261367005 14.210921256833824 H 0.0 **** 0.41
10269 H 49.118554628748754 19.257626911999495 14.732379235667269 H 0.0 **** 0.41
10270 O 35.0580239428305 33.54585658385757 15.200482920709362 O 0.0 **** -0.82
10271 H 35.76799313018788 33.12334469976708 14.586353265192912 H 0.0 **** 0.41
10272 H 35.417828045045994 34.46648441822891 15.415911191870535 H 0.0 **** 0.41
10273 O 4.47065909859618 45.15145221687386 38.13626965220492 O 0.0 **** -0.82
10274 H 4.84271017717127 44.618847412042875 38.902608379134385 H 0.0 **** 0.41
10275 H 4.01674417839034 45.9381087265346 38.62574794756605 H 0.0 **** 0.41
10276 O 41.27913849363085 7.562148822333214 42.806536636426706 O 0.0 **** -0.82
10277 H 40.975626884056325 6.6833803546027255 42.38947467988643 H 0.0 **** 0.41
10278 H 41.94146327805487 7.935600421114984 42.08591891036866 H 0.0 **** 0.41
10279 O 39.90450258300187 0.5001147380233775 9.199924226949962 O 0.0 **** -0.82
10280 H 38.92762623026985 0.3306279723299568 9.278204701099048 H 0.0 **** 0.41
10281 H 40.23532725747224 0.8955327698502131 10.07480309193802 H 0.0 **** 0.41
10282 O 35.38089555907572 15.233300736919643 22.279572194761045 O 0.0 **** -0.82
10283 H 35.52687470056608 15.418851746447611 21.289893710709407 H 0.0 **** 0.41
10284 H 34.95348179898961 16.063720790298404 22.618446326788074 H 0.0 **** 0.41
10285 O 44.882196205984116 19.72483540255745 8.374443325724094 O 0.0 **** -0.82
10286 H 45.434842992537 20.20827194515867 7.653974480580376 H 0.0 **** 0.41
10287 H 44.439286272749285 18.956107644066147 7.859144152477679 H 0.0 **** 0.41
10288 O 19.78485334626336 47.21174605134864 32.34442396718969 O 0.0 **** -0.82
10289 H 19.881941785934004 46.57195733621788 33.11672720292039 H 0.0 **** 0.41
10290 H 20.44613340277307 46.89583452404276 31.6193651904212 H 0.0 **** 0.41
10291 O 10.234314060736864 0.5598175878941937 4.5200828053834945 O 0.0 **** -0.82
10292 H 11.219319149456545 0.31805827571568107 4.42380910421705 H 0.0 **** 0.41
10293 H 9.944686266849573 0.22786750082286406 3.6452485305138684 H 0.0 **** 0.41
10294 O 28.13016956937699 28.05240607307118 40.596476630417875 O 0.0 **** -0.82
10295 H 28.27567813534889 29.091936990077524 40.69467568707372 H 0.0 **** 0.41
10296 H 28.278514706600898 27.631360565271365 41.51579596525866 H 0.0 **** 0.41
10297 O 47.361723131054866 33.56752924896281 37.508272572337674 O 0.0 **** -0.82
10298 H 47.366434126349276 33.90318421057876 38.47263471912639 H 0.0 **** 0.41
10299 H 48.03195947076308 32.8631419351003 37.40693514085979 H 0.0 **** 0.41
10300 O 39.4190463819996 49.54613140967034 29.913082700031175 O 0.0 **** -0.82
10301 H 40.22599794963124 49.169251614949594 30.41843828522439 H 0.0 **** 0.41
10302 H 39.65252886264237 49.302367516695845 28.94352258315808 H 0.0 **** 0.41
10303 O 34.52862737915572 42.19326679565549 27.158059486336388 O 0.0 **** -0.82
10304 H 35.07633886012047 42.94313906712711 27.556795972827192 H 0.0 **** 0.41
10305 H 34.43975610426949 41.349944651415186 27.786702904498767 H 0.0 **** 0.41
10306 O 44.407316667241496 19.160030488903686 0.9653416287578692 O 0.0 **** -0.82
10307 H 44.77974911919013 20.05364642333482 1.039135968656904 H 0.0 **** 0.41
10308 H 44.194841019604304 18.91884973570876 1.9321398358071247 H 0.0 **** 0.41
10309 O 2.800262094991581 39.51956358067622 34.64060888549627 O 0.0 **** -0.82
10310 H 2.4838544296625145 39.55161165543237 35.60348761709785 H 0.0 **** 0.41
10311 H 3.674317493917357 39.071492997612104 34.65170954780604 H 0.0 **** 0.41
10312 O 20.240364095022137 30.554443377400673 38.5709729247107 O 0.0 **** -0.82
10313 H 19.94127395498246 29.622118109074098 38.90964037879476 H 0.0 **** 0.41
10314 H 19.93373321465213 31.20061205697607 39.29124487456882 H 0.0 **** 0.41
10315 O 29.243355701432158 46.10092531466876 9.64740882179477 O 0.0 **** -0.82
10316 H 29.33441154134554 45.857137641185034 10.615116359678389 H 0.0 **** 0.41
10317 H 30.165550037721857 46.052177269582685 9.268322080173405 H 0.0 **** 0.41
10318 O 37.946809446986336 41.62423929483549 5.177686437147784 O 0.0 **** -0.82
10319 H 37.443590135566645 42.132281052394674 4.436287005041201 H 0.0 **** 0.41
10320 H 38.89697018359136 41.5216095029487 4.8377281438149495 H 0.0 **** 0.41
10321 O 16.817722967349464 15.581578600010534 2.89364813353599 O 0.0 **** -0.82
10322 H 16.936841114172086 16.573108152015923 3.244161750164153 H 0.0 **** 0.41
10323 H 17.019727461341237 15.136061685581435 3.7588136896459474 H 0.0 **** 0.41
10324 O 27.547116339914677 9.911414733642701 0.6989227057426532 O 0.0 **** -0.82
10325 H 26.603714362962904 9.605346557781402 0.9353204759981892 H 0.0 **** 0.41
10326 H 28.083122300190205 9.904190798340785 1.5464888949935442 H 0.0 **** 0.41
10327 O 49.984006501331876 16.93685280828184 33.82477886935871 O 0.0 **** -0.82
10328 H 50.699746319704374 17.377880660359494 34.383990688221886 H 0.0 **** 0.41
10329 H 50.209205879961125 16.914771401262556 32.85074963663652 H 0.0 **** 0.41
10330 O 43.72782752825289 29.58163045455815 11.891223256998915 O 0.0 **** -0.82
10331 H 44.37276428014656 30.27231584273477 12.257308391752996 H 0.0 **** 0.41
10332 H 42.85421519768209 29.796368412585636 12.377505763606775 H 0.0 **** 0.41
10333 O 49.66894945754966 18.837865516227243 18.84080006121772 O 0.0 **** -0.82
10334 H 49.682284299748005 19.82407505261094 18.58239539104119 H 0.0 **** 0.41
10335 H 49.83417529784153 18.62817002838664 17.876959304308173 H 0.0 **** 0.41
10336 O 26.28492134740161 21.803441286697918 49.34161292009379 O 0.0 **** -0.82
10337 H 25.38597571824359 21.872238412461005 48.79081069294463 H 0.0 **** 0.41
10338 H 26.179569237930085 22.61690774600011 49.8775510521968 H 0.0 **** 0.41
10339 O 2.12366935230866 44.34539700859017 32.48810666139102 O 0.0 **** -0.82
10340 H 1.3132886710354512 44.646716859576415 31.969369750464853 H 0.0 **** 0.41
10341 H 2.648916617808453 45.119709418744606 32.83040779310445 H 0.0 **** 0.41
10342 O 30.095068695300572 31.05966272483758 19.793471493112307 O 0.0 **** -0.82
10343 H 30.124215068941513 32.00629166770762 20.14862754106338 H 0.0 **** 0.41
10344 H 30.78453615032483 30.483524838562463 20.195005883124733 H 0.0 **** 0.41
10345 O 0.5814236080023998 11.335928893469235 15.626791801409071 O 0.0 **** -0.82
10346 H -0.3689879076850886 10.943233097146228 15.254766612698287 H 0.0 **** 0.41
10347 H 1.127197215620689 11.173521313068015 14.788131088704636 H 0.0 **** 0.41
10348 O 24.132505160733178 19.378182046310048 8.136663626413998 O 0.0 **** -0.82
10349 H 24.555777959418148 19.158047683988986 9.023828175520407 H 0.0 **** 0.41
10350 H 23.238699634858143 18.925505803192788 8.032675740070815 H 0.0 **** 0.41
10351 O 38.734658218387615 40.339122691988784 34.22189972866379 O 0.0 **** -0.82
10352 H 39.00542390655959 39.96945770964803 33.30599957802459 H 0.0 **** 0.41
10353 H 39.35117714412801 39.936309748054555 34.86021421530314 H 0.0 **** 0.41
10354 O 37.61976464684778 5.0190432594019825 23.95676819133267 O 0.0 **** -0.82
10355 H 37.80713665810284 5.666789103805513 24.74303922385905 H 0.0 **** 0.41
10356 H 38.18231666443438 4.185261233240865 24.14539102003377 H 0.0 **** 0.41
10357 O 33.06632198008978 31.693763368326902 33.08337870781935 O 0.0 **** -0.82
10358 H 33.36173779913908 31.900795075917944 32.13520697750959 H 0.0 **** 0.41
10359 H 32.07609428642036 31.380203067571912 32.91250346148752 H 0.0 **** 0.41
10360 O 6.169520488843791 2.011782292033112 37.87035692098375 O 0.0 **** -0.82
10361 H 6.223645787728489 2.264057912965718 36.858869418835376 H 0.0 **** 0.41
10362 H 6.871024927523845 2.5312637622402496 38.35933473075813 H 0.0 **** 0.41
10363 O 18.095869686858386 23.85721315298428 10.31850719599117 O 0.0 **** -0.82
10364 H 18.39168431323518 22.93897296628411 10.035747629894882 H 0.0 **** 0.41
10365 H 18.111137478947537 24.38912968185597 9.482242948535202 H 0.0 **** 0.41
10366 O 33.1793194241946 20.843778982721698 41.49653113141251 O 0.0 **** -0.82
10367 H 33.055678287956184 20.109035279839514 40.78865326087417 H 0.0 **** 0.41
10368 H 32.69580195055034 20.578449288854532 42.32913789304157 H 0.0 **** 0.41
10369 O 23.55483297567267 37.963154557098136 44.87604283591216 O 0.0 **** -0.82
10370 H 24.434069127900827 38.445234337692995 44.82078282740894 H 0.0 **** 0.41
10371 H 23.040413111987455 38.23607351471779 44.03895880809613 H 0.0 **** 0.41
10372 O 47.71646422297113 13.914993803994143 46.21220395297941 O 0.0 **** -0.82
10373 H 47.17369261410976 14.361379820116213 46.90182230730668 H 0.0 **** 0.41
10374 H 47.28140200728356 13.003333751267533 46.004161484609185 H 0.0 **** 0.41
10375 O 37.78819147946026 19.76163917581396 46.86835092696903 O 0.0 **** -0.82
10376 H 37.21128648278005 20.314330249449768 46.26230952684116 H 0.0 **** 0.41
10377 H 37.422364680240186 18.81488116236698 46.725573930116724 H 0.0 **** 0.41
10378 O 35.59672214818356 36.67398972127064 15.294232646097496 O 0.0 **** -0.82
10379 H 34.966981866543804 36.64792820621922 14.45811807453335 H 0.0 **** 0.41
10380 H 36.173115442548664 37.50560359663438 15.150118622808124 H 0.0 **** 0.41
10381 O 0.0730718001124302 43.265002807076996 3.092324817017179 O 0.0 **** -0.82
10382 H 0.7515559496132624 42.9564720500984 3.750249751972916 H 0.0 **** 0.41
10383 H 0.16635441584687527 42.76646986117606 2.2221695287322802 H 0.0 **** 0.41
10384 O 16.265573455010937 21.196216914671353 37.52869535700534 O 0.0 **** -0.82
10385 H 17.10238467426403 20.93182747247099 36.94131060393291 H 0.0 **** 0.41
10386 H 15.510519320644761 20.562311544586954 37.189157312129446 H 0.0 **** 0.41
10387 O 40.76321141868159 14.398351404471754 8.55264604178302 O 0.0 **** -0.82
10388 H 40.05893439903843 15.004621862833133 9.00022386740062 H 0.0 **** 0.41
10389 H 41.34359236521345 14.059897448381358 9.270763715138429 H 0.0 **** 0.41
10390 O 13.993562343623013 48.725535438527864 7.220117527084284 O 0.0 **** -0.82
10391 H 13.602231167231347 49.15453138746425 8.06067082702333 H 0.0 **** 0.41
10392 H 14.689761176875448 48.1033255273409 7.605565350708247 H 0.0 **** 0.41
10393 O 11.138573153706792 19.307926535199982 29.43638675079893 O 0.0 **** -0.82
10394 H 10.731192439545163 18.366088864893296 29.421147225148644 H 0.0 **** 0.41
10395 H 10.3708194985233 19.977451766370883 29.341019704659914 H 0.0 **** 0.41
10396 O 33.703912525030255 29.35604770865105 41.48164533828272 O 0.0 **** -0.82
10397 H 34.060807577679164 28.98195097827343 40.55057432607026 H 0.0 **** 0.41
10398 H 34.41214408130362 28.897288533943513 42.134571712074155 H 0.0 **** 0.41
10399 O 35.61072004857283 4.837229261516761 29.23085498582658 O 0.0 **** -0.82
10400 H 35.50609435604572 5.798774695630563 29.64733773691788 H 0.0 **** 0.41
10401 H 35.020528143608786 4.842103590963475 28.42688014061205 H 0.0 **** 0.41
10402 O 40.54790324909259 29.099419247624866 18.389238489979395 O 0.0 **** -0.82
10403 H 41.54426525177691 28.90313273081309 18.638390807033232 H 0.0 **** 0.41
10404 H 40.1211042813488 28.546002872575023 19.164207504802313 H 0.0 **** 0.41
10405 O 27.446241124610836 42.49502007240047 31.181424637820143 O 0.0 **** -0.82
10406 H 27.184767879680606 41.61572233098774 30.67950821004932 H 0.0 **** 0.41
10407 H 28.250936604840376 42.31149550772262 31.694375577832833 H 0.0 **** 0.41
10408 O 34.49009683697976 15.873713396954585 42.511026838197225 O 0.0 **** -0.82
10409 H 35.354832047980345 16.131279644554127 42.05504739449783 H 0.0 **** 0.41
10410 H 34.53553144562512 16.36409708528022 43.35187881258199 H 0.0 **** 0.41
10411 O 22.282274409884533 11.924477692705443 20.344625489483974 O 0.0 **** -0.82
10412 H 21.61043929283575 12.640984070716383 20.189956664101356 H 0.0 **** 0.41
10413 H 22.41053063387966 11.50983237729379 19.40060125438681 H 0.0 **** 0.41
10414 O 7.550954924835892 43.87678404089955 20.480694542444937 O 0.0 **** -0.82
10415 H 8.150900425261774 43.137108878553725 20.161635302133064 H 0.0 **** 0.41
10416 H 6.5647414390452 43.62859944577901 20.36657975231104 H 0.0 **** 0.41
10417 O 37.11817274509272 38.329692643961266 22.750410159960484 O 0.0 **** -0.82
10418 H 36.99804052342296 39.321175801208035 22.7211923754297 H 0.0 **** 0.41
10419 H 37.42926560941106 38.103840430461794 21.823085349214665 H 0.0 **** 0.41
10420 O 4.349389309730923 28.67080805317495 19.44957976955482 O 0.0 **** -0.82
10421 H 4.185303147600812 27.862483239294377 18.8273038780619 H 0.0 **** 0.41
10422 H 4.536505465172295 28.18708424905752 20.31681413465792 H 0.0 **** 0.41
10423 O 35.42099235542533 24.739970348098407 44.484733083288056 O 0.0 **** -0.82
10424 H 35.905602396809826 23.93595058940001 44.1570517249514 H 0.0 **** 0.41
10425 H 34.61054252187527 24.7250188101358 43.865509268811685 H 0.0 **** 0.41
10426 O 18.923916209836126 40.19793611545657 18.616839729508715 O 0.0 **** -0.82
10427 H 18.001117385777583 39.79872960666563 18.786107419514593 H 0.0 **** 0.41
10428 H 19.104813944005308 40.126977474894986 17.637825869102542 H 0.0 **** 0.41
10429 O 3.4877786175644596 17.03906531638303 23.88178252969464 O 0.0 **** -0.82
10430 H 3.6922654349433093 16.421640733657465 23.12364238007123 H 0.0 **** 0.41
10431 H 3.3595595621020826 16.28343263468492 24.519649779849942 H 0.0 **** 0.41
10432 O 23.997787242789695 23.42658560158571 15.62478272932512 O 0.0 **** -0.82
10433 H 23.970591109110686 23.792207802118803 14.70169974430047 H 0.0 **** 0.41
10434 H 23.688592060950686 22.456926602309327 15.643289379971222 H 0.0 **** 0.41
10435 O 7.885289530723597 43.093615798445086 33.323615214336044 O 0.0 **** -0.82
10436 H 8.563631155290878 42.95971915693842 32.58716853602298 H 0.0 **** 0.41
10437 H 7.034314079903972 43.36534668391752 32.87669558213386 H 0.0 **** 0.41
10438 O 39.609513960113176 42.061763633517046 10.962243516036153 O 0.0 **** -0.82
10439 H 40.353276935955506 42.3980570662481 10.336492181411636 H 0.0 **** 0.41
10440 H 39.00719793983675 41.320200869828085 10.64308297579646 H 0.0 **** 0.41
10441 O 40.18246611106953 24.158968575298555 27.72487114809674 O 0.0 **** -0.82
10442 H 40.34473162011082 24.864048567837305 28.532373942847457 H 0.0 **** 0.41
10443 H 39.160870654767166 24.103575217210167 27.656150931909877 H 0.0 **** 0.41
10444 O 48.85493771861722 39.004806933557695 44.99195830107481 O 0.0 **** -0.82
10445 H 49.030812566169395 40.03406501129217 44.96938649091399 H 0.0 **** 0.41
10446 H 49.11112779153118 38.72583024763257 45.96059618611578 H 0.0 **** 0.41
10447 O 12.812269534237444 18.025276097998134 4.7667235345624235 O 0.0 **** -0.82
10448 H 12.750687651879616 17.095790677116405 4.326370267782423 H 0.0 **** 0.41
10449 H 12.298611717286306 17.860763192456144 5.598692948444118 H 0.0 **** 0.41
10450 O 31.1608499173087 5.272787358518107 33.54507511050838 O 0.0 **** -0.82
10451 H 32.125689826729065 5.187899820573172 33.60120761965092 H 0.0 **** 0.41
10452 H 30.734571853168152 4.323838142176243 33.79077521393166 H 0.0 **** 0.41
10453 O 10.111215097932458 35.01553033795275 29.387341914925653 O 0.0 **** -0.82
10454 H 9.750401421590688 34.054713014756665 29.428968380580468 H 0.0 **** 0.41
10455 H 9.35328943701348 35.61573121421409 29.319542754287923 H 0.0 **** 0.41
10456 O 12.640567630029889 16.64525739605036 32.37094995627175 O 0.0 **** -0.82
10457 H 12.923426520318468 15.869279074604588 31.803332551778883 H 0.0 **** 0.41
10458 H 11.693488514000597 16.482570572518796 32.78666879806822 H 0.0 **** 0.41
10459 O 23.675549333976868 10.265053833223652 44.59959111370645 O 0.0 **** -0.82
10460 H 23.287888642349213 10.798032410324204 43.77039012550705 H 0.0 **** 0.41
10461 H 23.851471206324362 10.965820336112266 45.332712011603434 H 0.0 **** 0.41
10462 O 13.68329472630905 36.785793608243175 16.207690430089258 O 0.0 **** -0.82
10463 H 13.798216125368807 36.14335132251742 15.355126136669076 H 0.0 **** 0.41
10464 H 14.368821752750724 37.487732514567554 15.92010018217864 H 0.0 **** 0.41
10465 O 25.870628329142022 21.925568435991284 13.684990417880323 O 0.0 **** -0.82
10466 H 26.811748946212845 21.846339611616674 14.145230326451198 H 0.0 **** 0.41
10467 H 25.246820955847767 21.15203459623388 13.9991533655333 H 0.0 **** 0.41
10468 O 12.078222955962943 35.191792893576995 40.97603186208091 O 0.0 **** -0.82
10469 H 12.184635360931672 35.60125024518591 41.89798702854801 H 0.0 **** 0.41
10470 H 11.55494177288383 34.33579157124588 41.06406467444302 H 0.0 **** 0.41
10471 O 25.254052271157462 21.02724430857559 6.28240123009823 O 0.0 **** -0.82
10472 H 26.262655088355984 20.80491921725553 6.380357983460769 H 0.0 **** 0.41
10473 H 24.812851615458143 20.26664724266968 6.856944993065731 H 0.0 **** 0.41
10474 O 49.55787253512927 19.091440314518874 2.054552298951389 O 0.0 **** -0.82
10475 H 50.59825083289695 18.997723567364034 2.0469973125066216 H 0.0 **** 0.41
10476 H 49.36321729517508 19.27182353596825 1.0615841999981819 H 0.0 **** 0.41
10477 O 23.816995242518022 10.968087972607137 31.831286801685017 O 0.0 **** -0.82
10478 H 22.910187927561555 11.073864338386663 32.153795644310975 H 0.0 **** 0.41
10479 H 23.933410254355774 10.17082750837627 31.171643522643084 H 0.0 **** 0.41
10480 O 14.819499454172378 34.93181663553926 37.10076436270015 O 0.0 **** -0.82
10481 H 14.29800049515156 34.07230395595467 37.15555414061683 H 0.0 **** 0.41
10482 H 14.702211144142966 35.34209137256115 38.04096579846911 H 0.0 **** 0.41
10483 O 17.3683717066083 26.24219061420568 30.1278991106116 O 0.0 **** -0.82
10484 H 18.192870601687275 26.452811202090313 29.551378962368744 H 0.0 **** 0.41
10485 H 17.76192033770303 25.7330122501624 30.92948180196891 H 0.0 **** 0.41
10486 O 33.92593273213071 48.12270475197613 4.7099796715988385 O 0.0 **** -0.82
10487 H 33.3623178750281 47.81725694937258 3.9458779843105676 H 0.0 **** 0.41
10488 H 34.874591460021804 47.91255751252165 4.37588295980787 H 0.0 **** 0.41
10489 O 32.97585608995799 3.0699534044455823 10.331586311509334 O 0.0 **** -0.82
10490 H 33.34686326568034 3.7724577703548103 9.679909927255537 H 0.0 **** 0.41
10491 H 33.20951399738722 2.157322988834135 9.967373956879726 H 0.0 **** 0.41
10492 O 16.150032877694596 3.5059070839235105 0.5980389139396596 O 0.0 **** -0.82
10493 H 15.388626545565707 4.029422097129228 0.25188754939655916 H 0.0 **** 0.41
10494 H 16.95602959148208 3.7628586640401096 0.08238315312634206 H 0.0 **** 0.41
10495 O 36.321702031577686 39.69753875510664 2.5782508821913526 O 0.0 **** -0.82
10496 H 36.274783312211746 40.46020226775224 3.259054214819002 H 0.0 **** 0.41
10497 H 35.402386931471305 39.578348942304906 2.1329043390803437 H 0.0 **** 0.41
10498 O 24.173043096799514 35.86304700796944 47.80944426004903 O 0.0 **** -0.82
10499 H 23.790919488393754 35.38162489288283 46.98937466587195 H 0.0 **** 0.41
10500 H 23.523199552543208 35.62168581482406 48.541231529837496 H 0.0 **** 0.41
10501 O 30.204542492873266 7.023168583032206 41.48076144118372 O 0.0 **** -0.82
10502 H 29.39581074664066 7.414819637332142 41.00996834626399 H 0.0 **** 0.41
10503 H 30.038401309954427 6.0303695055199995 41.64497509508444 H 0.0 **** 0.41
10504 O 16.663036845373057 36.14860485952242 25.882842052146138 O 0.0 **** -0.82
10505 H 16.690232444894175 35.65013807714285 26.760127579777713 H 0.0 **** 0.41
10506 H 16.252642022323272 35.4892182951374 25.23784541987239 H 0.0 **** 0.41
10507 O 47.97974913539022 17.072621498996767 27.681256629016346 O 0.0 **** -0.82
10508 H 48.04568378749217 17.281197946285232 28.687520347011734 H 0.0 **** 0.41
10509 H 48.582181482018306 16.31078793914014 27.64043991278562 H 0.0 **** 0.41
10510 O 6.962069008525468 41.064786704958614 6.027696059920104 O 0.0 **** -0.82
10511 H 7.742005830565553 41.30201086149813 5.434901990383217 H 0.0 **** 0.41
10512 H 6.599737000020511 40.14553632475449 5.907028959517857 H 0.0 **** 0.41
10513 O 29.16822907695371 4.846840949705353 26.88416019103252 O 0.0 **** -0.82
10514 H 28.643536435099293 5.238389097043438 27.654561417580908 H 0.0 **** 0.41
10515 H 29.87781329752296 5.42392513978934 26.750979358797792 H 0.0 **** 0.41
10516 O 38.36989285983364 8.638959571497297 8.747015663420573 O 0.0 **** -0.82
10517 H 37.56410940213701 8.261711110490225 9.153867860064638 H 0.0 **** 0.41
10518 H 38.838593158769385 7.969371586424264 8.14016453372624 H 0.0 **** 0.41
10519 O 13.733076622258478 33.16681542855352 34.72091538782251 O 0.0 **** -0.82
10520 H 13.699736256653036 32.92813490746399 33.73151961812811 H 0.0 **** 0.41
10521 H 14.606155230598967 33.574196800047034 34.919880910567066 H 0.0 **** 0.41
10522 O 41.02987860792861 27.13953731767385 7.9788446073932775 O 0.0 **** -0.82
10523 H 41.11520568558515 26.13590518748247 7.8411081525276956 H 0.0 **** 0.41
10524 H 41.75413392392377 27.519261297822126 7.312368586784565 H 0.0 **** 0.41
10525 O 14.163041128581728 2.2991440527722773 36.95499741420751 O 0.0 **** -0.82
10526 H 14.336656945430336 2.4170894427950174 37.94160007275756 H 0.0 **** 0.41
10527 H 13.311155208046895 1.7094094155446342 36.96866813776009 H 0.0 **** 0.41
10528 O 12.163287341130655 16.101910017087235 41.17643976643313 O 0.0 **** -0.82
10529 H 11.408196435250964 16.760373201725344 41.32239126857707 H 0.0 **** 0.41
10530 H 12.647923301518063 16.004250515017873 42.055160683031474 H 0.0 **** 0.41
10531 O 5.835529898150481 21.25052973932107 16.107168746114322 O 0.0 **** -0.82
10532 H 6.750117869762547 21.52772887801865 15.733760254593946 H 0.0 **** 0.41
10533 H 5.9992581876477376 20.346692574745294 16.509379217495066 H 0.0 **** 0.41
10534 O 44.70790369695741 23.83839681692525 29.69138349127239 O 0.0 **** -0.82
10535 H 45.01801798694972 22.9849098051443 29.13224645282459 H 0.0 **** 0.41
10536 H 45.583008896391306 24.261679884957804 29.98082233611762 H 0.0 **** 0.41
10537 O 46.78002531078073 46.56114762327182 10.496384382560233 O 0.0 **** -0.82
10538 H 47.643195179056576 46.33702868280949 11.075839261627797 H 0.0 **** 0.41
10539 H 46.83460943066119 47.531337327658065 10.53502158078763 H 0.0 **** 0.41
10540 O 35.707659379980235 7.013970770422525 26.05869133950037 O 0.0 **** -0.82
10541 H 35.19973532413109 6.952443075269359 25.225753204607827 H 0.0 **** 0.41
10542 H 35.07095658357742 6.491832119245612 26.696641622074694 H 0.0 **** 0.41
10543 O 9.4585662859525 9.664733590495384 48.2747540988791 O 0.0 **** -0.82
10544 H 9.153965048772037 9.840767000001614 47.361577575246955 H 0.0 **** 0.41
10545 H 8.668105285789864 9.712245125094391 48.86732061068924 H 0.0 **** 0.41
10546 O 40.20247625043591 47.652150125949966 36.18832733949094 O 0.0 **** -0.82
10547 H 40.65252005752918 46.74419846959237 36.34361836511185 H 0.0 **** 0.41
10548 H 40.45781716283885 47.77836240297804 35.17485369502532 H 0.0 **** 0.41
10549 O 23.10488002788748 33.74986854327493 28.458929512174358 O 0.0 **** -0.82
10550 H 24.105157196275787 34.09354288631655 28.607458797293774 H 0.0 **** 0.41
10551 H 23.161081414030022 33.01919413023211 27.788566248056284 H 0.0 **** 0.41
10552 O 24.943961795786677 46.70273838211898 33.75948345646541 O 0.0 **** -0.82
10553 H 25.56523151563417 47.53425321583171 33.93168281822493 H 0.0 **** 0.41
10554 H 24.283389503044653 47.07060667657399 33.1024315683514 H 0.0 **** 0.41
10555 O 26.733257905818785 28.969525483937648 46.9031969663493 O 0.0 **** -0.82
10556 H 27.16710703476324 28.065653181288454 46.934307321388786 H 0.0 **** 0.41
10557 H 25.775222427610604 28.935805491221004 47.2635640003684 H 0.0 **** 0.41
10558 O 2.3407510262793005 36.36093858541089 22.54337961864401 O 0.0 **** -0.82
10559 H 3.073032062876893 36.41814990937781 23.208293116727106 H 0.0 **** 0.41
10560 H 2.683980649625564 36.84385782092475 21.738252490910924 H 0.0 **** 0.41
10561 O 45.647818102069586 23.404673072930088 6.809046869297838 O 0.0 **** -0.82
10562 H 44.93123451469659 24.08436986801353 6.637750118830013 H 0.0 **** 0.41
10563 H 46.024429358793306 23.625728440376566 7.70681238388358 H 0.0 **** 0.41
10564 O 12.285492694727798 14.994828759200686 11.665021282048286 O 0.0 **** -0.82
10565 H 11.605823590623435 15.296461021747263 12.366151352105383 H 0.0 **** 0.41
10566 H 13.172350855132054 15.449100309463574 11.930217075907676 H 0.0 **** 0.41
10567 O 26.269625888648648 42.53315597710776 40.501357430321136 O 0.0 **** -0.82
10568 H 25.936088777670065 42.7848519434177 39.58451917773692 H 0.0 **** 0.41
10569 H 26.886892807263884 41.78549613065478 40.234144572013214 H 0.0 **** 0.41
10570 O 20.247972819766417 31.45260839930026 4.100885614263518 O 0.0 **** -0.82
10571 H 20.869604664146294 32.011746931958314 3.5151119462402107 H 0.0 **** 0.41
10572 H 20.94484533315944 31.194243165214488 4.76939613707296 H 0.0 **** 0.41
10573 O 12.179955193411923 5.296734931318854 28.155967235606873 O 0.0 **** -0.82
10574 H 12.256525370056224 4.3928570697416305 28.608150392301557 H 0.0 **** 0.41
10575 H 11.26407072933847 5.478207839299592 27.903667883785698 H 0.0 **** 0.41
10576 O 48.58086202212823 2.0461227013250536 2.0606461710847075 O 0.0 **** -0.82
10577 H 47.62727593504419 1.9643358234650847 2.548895055999927 H 0.0 **** 0.41
10578 H 49.26090353406047 2.296609780641141 2.7698291804687805 H 0.0 **** 0.41
10579 O 6.7571557350583085 7.103755156914284 28.273746629033088 O 0.0 **** -0.82
10580 H 7.420731370166083 7.685367792149198 27.843344633306398 H 0.0 **** 0.41
10581 H 7.190551719491684 6.692299375883777 29.061545763745215 H 0.0 **** 0.41
10582 O 12.682150549358454 8.870537818121349 19.9832207188 O 0.0 **** -0.82
10583 H 12.898385241648135 9.35306617540841 20.834566806416305 H 0.0 **** 0.41
10584 H 13.180047973308575 9.378847864956228 19.239941513865702 H 0.0 **** 0.41
10585 O 48.14457075077516 42.60222274943043 37.901399875077566 O 0.0 **** -0.82
10586 H 47.83326991998889 42.75875581483392 38.891239736539276 H 0.0 **** 0.41
10587 H 48.64176422224005 43.472230561317964 37.645318035739386 H 0.0 **** 0.41
10588 O 26.036510355283387 35.04853020005417 7.005466189618323 O 0.0 **** -0.82
10589 H 25.578445024407443 35.534470041657464 7.765653537962516 H 0.0 **** 0.41
10590 H 26.791332400680723 34.43689515361202 7.359944348022504 H 0.0 **** 0.41
10591 O 12.661156905721056 11.5200194792098 16.974809307410354 O 0.0 **** -0.82
10592 H 12.763834199201264 11.337389401793985 15.972300772258706 H 0.0 **** 0.41
10593 H 11.761649881891492 11.177107470800436 17.21761643273834 H 0.0 **** 0.41
10594 O 37.349456249201005 19.834513502874188 18.177271357113607 O 0.0 **** -0.82
10595 H 37.08340128096207 20.826456079598117 18.01085730510455 H 0.0 **** 0.41
10596 H 37.24338206375283 19.27298451111153 17.32519720497942 H 0.0 **** 0.41
10597 O 44.11839126883007 35.564210252901354 16.752199742561743 O 0.0 **** -0.82
10598 H 44.471529181779296 36.445290056523476 16.367666064729136 H 0.0 **** 0.41
10599 H 44.77702767014236 34.83483619291233 16.38378495095735 H 0.0 **** 0.41
10600 O 46.52414444660447 23.81616737725258 14.881531317344749 O 0.0 **** -0.82
10601 H 45.56388586995838 23.47991153868675 14.933514602684049 H 0.0 **** 0.41
10602 H 47.090047375178116 22.98388001993777 15.049478890555623 H 0.0 **** 0.41
10603 O 29.97309958651817 36.43428723055807 14.135254657786788 O 0.0 **** -0.82
10604 H 29.80225575227788 37.27423876613301 14.722810483780236 H 0.0 **** 0.41
10605 H 30.157747340246015 35.74314724432527 14.849104172357144 H 0.0 **** 0.41
10606 O 49.90878429099694 43.99394308491522 15.357100627187663 O 0.0 **** -0.82
10607 H 50.684076790866364 44.52786629366877 15.75700168080904 H 0.0 **** 0.41
10608 H 49.27854425469437 43.8587120421872 16.14966374903014 H 0.0 **** 0.41
10609 O 14.886892908542752 16.124612376070928 47.44376827728559 O 0.0 **** -0.82
10610 H 14.052543515615621 16.10343023071067 48.03391965533541 H 0.0 **** 0.41
10611 H 14.695024944162942 15.629426099771635 46.59774915435263 H 0.0 **** 0.41
10612 O 34.66218551612706 22.767607423599003 48.520742484896815 O 0.0 **** -0.82
10613 H 34.88850235662242 23.66443293110078 48.15101005698323 H 0.0 **** 0.41
10614 H 33.776219029475605 22.840665717502983 49.00647336670187 H 0.0 **** 0.41
10615 O 27.76763970484593 17.05088012348572 47.30419223332583 O 0.0 **** -0.82
10616 H 27.048376020599484 17.75371563047318 47.27349622617237 H 0.0 **** 0.41
10617 H 27.834149319715262 16.67117716900379 46.375565336097104 H 0.0 **** 0.41
10618 O 7.790895176225746 32.224837238002834 39.67192568385151 O 0.0 **** -0.82
10619 H 8.35173134453953 31.38670944076073 39.37401831932974 H 0.0 **** 0.41
10620 H 7.270502203943423 32.039660642623225 40.55427230097013 H 0.0 **** 0.41
10621 O 17.08713855139515 23.989760606811526 2.2174636489974042 O 0.0 **** -0.82
10622 H 17.39039589886855 24.983360849653216 2.462073679538386 H 0.0 **** 0.41
10623 H 16.11650123672555 23.8712010092797 2.5443448783626184 H 0.0 **** 0.41
10624 O 29.70867124452242 7.393376018691811 34.301554593821 O 0.0 **** -0.82
10625 H 30.386135054212914 6.9932810431742 33.67870512799773 H 0.0 **** 0.41
10626 H 29.65157424503596 6.768512638290488 35.068317749620924 H 0.0 **** 0.41
10627 O 22.01335830503673 31.587798184525 49.89146973765055 O 0.0 **** -0.82
10628 H 21.160921889660763 31.1477080761288 50.17027664809793 H 0.0 **** 0.41
10629 H 22.7809826864519 30.872521441999705 49.989057596927225 H 0.0 **** 0.41
10630 O 3.624461376552148 32.83574518876988 10.910857637847407 O 0.0 **** -0.82
10631 H 3.2974873649334313 32.89499434815098 11.842677612591018 H 0.0 **** 0.41
10632 H 4.436456942243993 32.18148142155894 10.869159590357938 H 0.0 **** 0.41
10633 O 46.47988201467136 39.37665827455489 48.39669322412532 O 0.0 **** -0.82
10634 H 47.155557498648875 39.60557901910721 47.74396269382652 H 0.0 **** 0.41
10635 H 45.70350919345145 40.013058330955964 48.18246822759248 H 0.0 **** 0.41
10636 O 47.43302060912153 20.82902039994157 2.971467281180729 O 0.0 **** -0.82
10637 H 48.09901831171976 20.0678994873617 3.0198561508101776 H 0.0 **** 0.41
10638 H 47.7768286311867 21.447616657949837 3.692359430450658 H 0.0 **** 0.41
10639 O 7.159377659173678 46.96323790276618 20.66325513871938 O 0.0 **** -0.82
10640 H 7.796821189809052 46.1457705182887 20.767142879443664 H 0.0 **** 0.41
10641 H 6.387386585694998 46.733613397412604 21.291087309554207 H 0.0 **** 0.41
10642 O 12.997278225622463 21.296661548001012 28.176745411268808 O 0.0 **** -0.82
10643 H 12.411316686637445 20.51898360161698 28.316948965067812 H 0.0 **** 0.41
10644 H 13.476766834918354 21.41594659785008 29.1111296077981 H 0.0 **** 0.41
10645 O 10.048942338976495 41.8882122139897 18.78750768092715 O 0.0 **** -0.82
10646 H 10.144387925276177 41.740134931702016 19.799868536571356 H 0.0 **** 0.41
10647 H 9.902494390663286 42.87773311718187 18.783736679717247 H 0.0 **** 0.41
10648 O 11.74866921577069 38.87423404911186 45.39572588314877 O 0.0 **** -0.82
10649 H 10.933123963515058 38.49223101814871 44.95601358844258 H 0.0 **** 0.41
10650 H 11.803901823546113 38.2658000729687 46.238982154588314 H 0.0 **** 0.41
10651 O 1.0752361936064112 22.745042493670766 0.18832206687885303 O 0.0 **** -0.82
10652 H 0.2161830994112026 22.236186841614327 0.050330941599384005 H 0.0 **** 0.41
10653 H 1.2474091261111482 22.685932352816323 1.1584472093687594 H 0.0 **** 0.41
10654 O 12.387077549776423 25.656487399816495 47.016346930764364 O 0.0 **** -0.82
10655 H 13.162787451364233 26.090569260613975 47.576906847352326 H 0.0 **** 0.41
10656 H 11.963300732988229 26.263121678004037 46.367462046367876 H 0.0 **** 0.41
10657 O 8.351303977837585 9.499176480852077 26.540331202003507 O 0.0 **** -0.82
10658 H 7.936364064027205 8.67353842384009 26.16724480377661 H 0.0 **** 0.41
10659 H 9.344261730814303 9.470547381640891 26.30252594727965 H 0.0 **** 0.41
10660 O 20.031191261164025 21.35125892857522 13.413640772228794 O 0.0 **** -0.82
10661 H 20.431940492024324 20.418662723636828 13.597423701621265 H 0.0 **** 0.41
10662 H 19.175442171934762 21.2103267449246 12.791151696021258 H 0.0 **** 0.41
10663 O 5.03019985888065 36.73491546792849 42.86366677559422 O 0.0 **** -0.82
10664 H 5.085751019405876 37.45447107888345 42.14917341203887 H 0.0 **** 0.41
10665 H 5.11024907592342 35.92927752739497 42.27054381241478 H 0.0 **** 0.41
10666 O 25.392920248887492 15.450285224856225 43.8221097509144 O 0.0 **** -0.82
10667 H 25.41037425868385 14.666589277770546 43.12661652576653 H 0.0 **** 0.41
10668 H 24.88209653190046 15.10032074731695 44.653098155049165 H 0.0 **** 0.41
10669 O 48.07172742337445 26.53560128187367 43.860295095967324 O 0.0 **** -0.82
10670 H 49.07717403746234 26.346242609767014 43.994942505824824 H 0.0 **** 0.41
10671 H 47.52223295874271 26.012596442602 44.51967225095265 H 0.0 **** 0.41
10672 O 1.6012743469522273 23.411150225035605 11.249379851744054 O 0.0 **** -0.82
10673 H 2.2798657920768246 23.628669920405013 11.921666590657212 H 0.0 **** 0.41
10674 H 0.7987837455922351 23.07519227804669 11.748968296053468 H 0.0 **** 0.41
10675 O 46.006732119100015 5.533729348957774 20.269754576560747 O 0.0 **** -0.82
10676 H 46.21187415354951 6.239154960547655 19.609869278551383 H 0.0 **** 0.41
10677 H 46.18885087232093 6.121726318838031 21.07674736288096 H 0.0 **** 0.41
10678 O 5.5960525643780485 41.48697285194379 44.73266335311841 O 0.0 **** -0.82
10679 H 6.271302728409388 41.006961624222946 44.147097664722864 H 0.0 **** 0.41
10680 H 4.847560668500449 41.23230658877072 44.143231222721376 H 0.0 **** 0.41
10681 O 25.094681190106755 43.214909147289184 38.03815809575692 O 0.0 **** -0.82
10682 H 24.878172568734172 42.52296985232063 37.29743883155434 H 0.0 **** 0.41
10683 H 24.30307263116545 43.84105754682793 37.79535746589272 H 0.0 **** 0.41
10684 O 32.9216350249034 31.046020140665345 8.975188034829976 O 0.0 **** -0.82
10685 H 33.17215646266898 30.627481239943158 9.848935940809582 H 0.0 **** 0.41
10686 H 33.35510129055754 30.589744625399618 8.178613207456905 H 0.0 **** 0.41
10687 O 25.870756115926962 25.339737913037187 29.491258470927534 O 0.0 **** -0.82
10688 H 25.885498448052072 25.44540640474847 30.522921402149606 H 0.0 **** 0.41
10689 H 25.196142768169025 24.65128534225279 29.216453225504047 H 0.0 **** 0.41
10690 O 44.12729037452162 38.51548049177828 26.331092380159802 O 0.0 **** -0.82
10691 H 44.89437506987682 39.11549373675939 25.958735357058067 H 0.0 **** 0.41
10692 H 43.468228474280586 39.141748855281065 26.763443901239555 H 0.0 **** 0.41
10693 O 36.9874960235629 39.952228305533204 45.82655690445729 O 0.0 **** -0.82
10694 H 37.169163976127805 39.0183580299948 46.066201554460584 H 0.0 **** 0.41
10695 H 37.73445888842335 40.27524740564866 45.2036694088709 H 0.0 **** 0.41
10696 O 1.6511667918661788 20.902490649590508 33.75002748755245 O 0.0 **** -0.82
10697 H 1.270894450629415 20.1362534319139 33.23193020500766 H 0.0 **** 0.41
10698 H 1.1858242417673277 20.882529262215442 34.693994488538735 H 0.0 **** 0.41
10699 O 38.07058949508986 3.9668213382936783 29.882086050997195 O 0.0 **** -0.82
10700 H 38.072007017899985 3.8967827354304734 30.899806579893088 H 0.0 **** 0.41
10701 H 37.156202141464036 4.390781693388458 29.74566444498384 H 0.0 **** 0.41
10702 O 19.011149431584833 32.24411366063107 33.016450240082946 O 0.0 **** -0.82
10703 H 19.635696869670635 31.459194797300583 33.23529843717777 H 0.0 **** 0.41
10704 H 18.778185957307546 32.29835217685819 32.0509931098691 H 0.0 **** 0.41
10705 O 5.769554981143154 2.9200170158820864 9.83362761887745 O 0.0 **** -0.82
10706 H 6.115810309689297 2.458630869247299 9.030764492663423 H 0.0 **** 0.41
10707 H 5.342124332229467 3.7825393772387943 9.470748711650607 H 0.0 **** 0.41
10708 O 41.30940408228746 12.254245521679586 2.5985453158293694 O 0.0 **** -0.82
10709 H 41.72375381445093 11.528300854578667 3.183970678955916 H 0.0 **** 0.41
10710 H 42.105620275829004 12.671868448893889 2.152695721386401 H 0.0 **** 0.41
10711 O 20.770134944897507 8.356558251379168 26.097461309935483 O 0.0 **** -0.82
10712 H 21.70028744111744 8.146866501140634 26.357877012974065 H 0.0 **** 0.41
10713 H 20.2643002502262 8.708954640478062 26.955319541513962 H 0.0 **** 0.41
10714 O 34.23200749523734 43.3137154763227 12.384590738283194 O 0.0 **** -0.82
10715 H 33.75869983909519 44.22225354846997 12.450718654221866 H 0.0 **** 0.41
10716 H 33.47956772731568 42.87548429236469 11.779072039120521 H 0.0 **** 0.41
10717 O 47.32858702931309 18.867533219752254 36.42325291477486 O 0.0 **** -0.82
10718 H 47.07180261323082 19.840327655219355 36.39607113537627 H 0.0 **** 0.41
10719 H 47.183822226573014 18.411050081598773 35.57099948202727 H 0.0 **** 0.41
10720 O 27.61788303644039 25.637066457121698 44.80023447153428 O 0.0 **** -0.82
10721 H 26.750477139921124 25.061075391587476 44.64497322605942 H 0.0 **** 0.41
10722 H 27.785939060718185 25.442642842236356 45.81823045657493 H 0.0 **** 0.41
10723 O 34.41368562033584 3.01631254215895 42.9792345083723 O 0.0 **** -0.82
10724 H 34.60410656927602 4.0221912524578185 42.82592431758135 H 0.0 **** 0.41
10725 H 35.04842812601316 2.762095599055091 43.77664500984242 H 0.0 **** 0.41
10726 O 22.920061026027334 22.026388055263688 26.857545920879254 O 0.0 **** -0.82
10727 H 22.390050304655436 22.76492736212648 27.187412543089604 H 0.0 **** 0.41
10728 H 22.683145329575346 21.9882514055165 25.887245915055168 H 0.0 **** 0.41
10729 O 47.35684207213068 20.687118624137042 25.203771874334294 O 0.0 **** -0.82
10730 H 47.49759619713098 21.67734263512267 25.00323679158521 H 0.0 **** 0.41
10731 H 46.34123131467593 20.796021139776315 25.402429947836247 H 0.0 **** 0.41
10732 O 29.25189701843814 42.43009870649932 49.51263216971732 O 0.0 **** -0.82
10733 H 30.119372623802636 42.3161079191046 50.02777859656313 H 0.0 **** 0.41
10734 H 29.21586201581011 41.49795730759738 49.08176732162782 H 0.0 **** 0.41
10735 O 24.197225044300822 15.97639454870918 36.798131970730424 O 0.0 **** -0.82
10736 H 24.455868811843793 16.672105433011495 36.051426747780795 H 0.0 **** 0.41
10737 H 24.766410435331917 15.175611005020784 36.579075368113735 H 0.0 **** 0.41
10738 O 38.67062601818401 11.189173442997564 3.0345907340628244 O 0.0 **** -0.82
10739 H 39.48206111265933 11.80923622254462 2.9787459022729976 H 0.0 **** 0.41
10740 H 39.10615668091168 10.30628880393747 3.348030269468694 H 0.0 **** 0.41
10741 O 40.136182990001814 25.154033811829247 43.67554313321524 O 0.0 **** -0.82
10742 H 40.023378770888684 25.199390915437338 42.670846869373655 H 0.0 **** 0.41
10743 H 40.3695940644954 24.220598422200887 43.95310954494003 H 0.0 **** 0.41
10744 O 36.894900075415414 1.902612195450263 11.970418689626172 O 0.0 **** -0.82
10745 H 37.51693360292112 1.2548073593179367 12.458410554924697 H 0.0 **** 0.41
10746 H 36.91080131660632 1.5947747092181348 11.020414774655478 H 0.0 **** 0.41
10747 O 10.919358212796254 12.738027049326195 25.909111144486236 O 0.0 **** -0.82
10748 H 10.901217997985064 13.428897885489974 25.144988995659098 H 0.0 **** 0.41
10749 H 9.938978840977917 12.78157104590518 26.297696588943325 H 0.0 **** 0.41
10750 O 4.454319827488388 11.111951425043967 41.01103315979742 O 0.0 **** -0.82
10751 H 5.362371193839744 10.718208082323297 41.19200789411963 H 0.0 **** 0.41
10752 H 4.298183237959356 11.39205943319019 40.03442816317805 H 0.0 **** 0.41
10753 O 11.263010488472698 41.03361622682868 8.114683370089573 O 0.0 **** -0.82
10754 H 11.62756333451116 41.673873521639386 8.757120688440558 H 0.0 **** 0.41
10755 H 10.628186571067175 40.376852400463875 8.582102076273898 H 0.0 **** 0.41
10756 O 41.730055402463655 22.277074548492614 43.31154076068735 O 0.0 **** -0.82
10757 H 42.63825659800356 21.87099778175275 43.69911434053762 H 0.0 **** 0.41
10758 H 41.02018934233358 21.887420667411455 43.96445055971485 H 0.0 **** 0.41
10759 O 16.279721051467046 12.77723264025099 2.133066103601003 O 0.0 **** -0.82
10760 H 16.950259393893898 12.680649413641396 1.3966467249355432 H 0.0 **** 0.41
10761 H 16.357441075338883 13.635366176815198 2.5298921841196176 H 0.0 **** 0.41
10762 O 13.04979386307475 28.121943228124714 36.13594326386274 O 0.0 **** -0.82
10763 H 13.447083562251251 27.77183946692836 35.29979654199918 H 0.0 **** 0.41
10764 H 13.813207517570135 28.47337119129067 36.73738042181485 H 0.0 **** 0.41
10765 O 15.812509845020422 37.78733183266499 14.951555870430049 O 0.0 **** -0.82
10766 H 15.599642777776811 37.186822755395866 14.16503415442724 H 0.0 **** 0.41
10767 H 15.127896316259019 38.57904745552455 14.793663899267791 H 0.0 **** 0.41
10768 O 30.841590409322524 39.451574850757936 6.639194746181943 O 0.0 **** -0.82
10769 H 30.486395378766886 39.77074107181731 5.751583028818899 H 0.0 **** 0.41
10770 H 30.31948824251879 38.62332468214887 6.860841097023055 H 0.0 **** 0.41
10771 O 28.532342869287422 37.23952648464908 21.303639438922104 O 0.0 **** -0.82
10772 H 28.587328869054417 38.12298355378035 21.813745602654787 H 0.0 **** 0.41
10773 H 28.031526005541853 36.6616662245787 21.938731387255277 H 0.0 **** 0.41
10774 O 30.02062383989979 43.051753895368904 32.28107387643303 O 0.0 **** -0.82
10775 H 29.74361015381979 43.54284629907237 31.458161448709806 H 0.0 **** 0.41
10776 H 30.149404711110652 43.755246769373436 32.99136036878543 H 0.0 **** 0.41
10777 O 16.395190866998988 17.805724642552434 15.029107986580215 O 0.0 **** -0.82
10778 H 15.506159180677265 17.345356431805016 15.045170234601045 H 0.0 **** 0.41
10779 H 17.173939845908762 17.150767649411733 14.850059287691806 H 0.0 **** 0.41
10780 O 44.05303060602229 30.580489355665613 22.576763955133362 O 0.0 **** -0.82
10781 H 43.69879558540195 31.091829077822105 23.44636236473028 H 0.0 **** 0.41
10782 H 44.47903528753828 29.667437128122824 22.787114673679028 H 0.0 **** 0.41
10783 O 42.0098088662172 46.124487174875064 49.241170325667504 O 0.0 **** -0.82
10784 H 41.44630244228163 45.423449052516965 48.80666335961088 H 0.0 **** 0.41
10785 H 42.85673352413991 45.59125375123515 49.48477230383039 H 0.0 **** 0.41
10786 O 9.754029845295818 40.81215000674424 47.12400709271724 O 0.0 **** -0.82
10787 H 9.727510211167456 41.31709493199875 46.227320431667295 H 0.0 **** 0.41
10788 H 9.599483053549868 39.82696596391829 46.88757262846734 H 0.0 **** 0.41
10789 O 17.209843270494055 7.392854922315101 42.7238630515189 O 0.0 **** -0.82
10790 H 18.207615299258894 7.29035950614799 42.45469974089982 H 0.0 **** 0.41
10791 H 17.182506141036697 8.362049969526856 43.06357079672522 H 0.0 **** 0.41
10792 O 45.325506512625346 31.832928107778997 12.800160101793725 O 0.0 **** -0.82
10793 H 46.22676620011599 32.07160536959827 12.413307501534904 H 0.0 **** 0.41
10794 H 44.72747728686189 32.61117849038867 12.63735019491168 H 0.0 **** 0.41
10795 O 38.410886082076736 37.60167543095978 46.53068580108084 O 0.0 **** -0.82
10796 H 38.49890236360967 36.683946401060275 46.0691343319846 H 0.0 **** 0.41
10797 H 39.17089312000045 38.13770201312061 46.12455127011324 H 0.0 **** 0.41
10798 O 9.101937951672543 42.62663823702893 9.883349362498192 O 0.0 **** -0.82
10799 H 9.100619621890885 42.43702706271851 8.904888379364646 H 0.0 **** 0.41
10800 H 9.256506648507063 43.68337875532177 10.004022535223125 H 0.0 **** 0.41
10801 O 15.018384937911833 24.397719046032424 26.946600553518532 O 0.0 **** -0.82
10802 H 15.269874619147316 24.391657589635937 27.946286578927396 H 0.0 **** 0.41
10803 H 14.229012939030028 23.76484024273279 26.87282774103786 H 0.0 **** 0.41
10804 O 23.01452375180706 26.32737012104017 38.19346487839002 O 0.0 **** -0.82
10805 H 23.712853434086924 26.701795512752003 37.49848835935631 H 0.0 **** 0.41
10806 H 22.04346215496633 26.32763160975266 37.84188673234827 H 0.0 **** 0.41
10807 O 13.764528325100823 14.679621486575781 6.6959326876459215 O 0.0 **** -0.82
10808 H 12.974500998765068 15.099213067566817 6.298847579669442 H 0.0 **** 0.41
10809 H 13.507361118620143 14.69750609729118 7.705616526452047 H 0.0 **** 0.41
10810 O 47.564944563915 31.511287214562163 43.46927292901947 O 0.0 **** -0.82
10811 H 47.71248099440361 30.724138835413406 44.130635990281995 H 0.0 **** 0.41
10812 H 46.576951432264394 31.41807608887809 43.16946204257573 H 0.0 **** 0.41
10813 O 14.960627124069587 26.78534608703885 20.17090040817877 O 0.0 **** -0.82
10814 H 15.712476401277893 27.274452860010364 20.575283625085316 H 0.0 **** 0.41
10815 H 15.395338613198517 25.99335191550873 19.76316762616425 H 0.0 **** 0.41
10816 O 4.628817708506759 1.4266048538735632 30.255094274000044 O 0.0 **** -0.82
10817 H 4.835762346937997 2.4583827336761885 30.363520723251085 H 0.0 **** 0.41
10818 H 5.075534022302058 1.1080503918984093 29.41116564603621 H 0.0 **** 0.41
10819 O 7.462999951600506 31.830807852808757 26.488013897764393 O 0.0 **** -0.82
10820 H 8.403296121581414 31.445835838458983 26.43895007944863 H 0.0 **** 0.41
10821 H 7.122656099806003 31.377431395498093 27.34719260726189 H 0.0 **** 0.41
10822 O 31.831612938776022 11.697151427101788 14.274814881797095 O 0.0 **** -0.82
10823 H 31.55206916060907 10.774775819977336 13.949566843536841 H 0.0 **** 0.41
10824 H 32.755638601112246 11.745926307173571 13.803861987710748 H 0.0 **** 0.41
10825 O 18.87927816194686 43.881712340292204 42.85880404043825 O 0.0 **** -0.82
10826 H 19.510809329690012 44.60040577561642 42.57360055008421 H 0.0 **** 0.41
10827 H 18.24648347284011 44.37429339385494 43.5350027075284 H 0.0 **** 0.41
10828 O 31.18751824511365 35.00037883184789 5.8151025742997575 O 0.0 **** -0.82
10829 H 30.542190237814864 34.218601953126274 5.663730800015017 H 0.0 **** 0.41
10830 H 31.84787339214103 34.627121373875326 6.525142815765179 H 0.0 **** 0.41
10831 O 31.974344625533206 17.389719816247666 33.86351363397497 O 0.0 **** -0.82
10832 H 31.02971852746417 17.52222679173297 34.16357198651168 H 0.0 **** 0.41
10833 H 32.317420625800395 16.5926773698927 34.335356002241944 H 0.0 **** 0.41
10834 O 15.132232448690615 46.60599209719511 23.043955756087957 O 0.0 **** -0.82
10835 H 15.296990248919585 47.08349267356683 23.93706955538719 H 0.0 **** 0.41
10836 H 15.415466788026933 45.57990087149984 23.0846236149595 H 0.0 **** 0.41
10837 O 19.145538876087773 28.23118134577392 39.358934652909916 O 0.0 **** -0.82
10838 H 19.30804022209877 27.71985852758654 40.201691494168415 H 0.0 **** 0.41
10839 H 18.225433959672188 28.53524115619877 39.4969699119424 H 0.0 **** 0.41
10840 O 14.599558504079532 9.72479984343555 47.903405269903864 O 0.0 **** -0.82
10841 H 14.576779802409616 9.513232058866695 48.863114009163844 H 0.0 **** 0.41
10842 H 13.817990949257052 9.12597728040142 47.68404122946527 H 0.0 **** 0.41
10843 O 30.021524749742895 36.41962881602032 2.0580185311063657 O 0.0 **** -0.82
10844 H 30.122323081944902 36.171821852144845 1.0602780555655011 H 0.0 **** 0.41
10845 H 30.598387356081012 37.2488310009296 2.1938900858106263 H 0.0 **** 0.41
10846 O 4.606240206442265 26.13153181468392 18.03044452459573 O 0.0 **** -0.82
10847 H 3.9587610040091055 26.023399680385847 17.201421189284435 H 0.0 **** 0.41
10848 H 4.100472908891469 25.726559455528818 18.803249048944135 H 0.0 **** 0.41
10849 O 39.39427470036932 25.210544739740094 12.325608572730431 O 0.0 **** -0.82
10850 H 39.12517410058274 24.18906648828679 12.215495772661583 H 0.0 **** 0.41
10851 H 38.58395686851937 25.77245613810651 12.068342433623869 H 0.0 **** 0.41
10852 O 46.09647298588988 32.52040398759497 6.062661736996905 O 0.0 **** -0.82
10853 H 45.99918004585468 31.92899687581408 6.9050946255562815 H 0.0 **** 0.41
10854 H 46.77037694382115 31.949059771021943 5.498305005545953 H 0.0 **** 0.41
10855 O 23.29808922329028 5.243392704060028 27.37099855481705 O 0.0 **** -0.82
10856 H 23.221946645343184 5.851763399416612 26.541785361210543 H 0.0 **** 0.41
10857 H 23.03861355188173 5.842298459269841 28.1399961099699 H 0.0 **** 0.41
10858 O 44.76102992452821 8.350907278257116 38.84607220700264 O 0.0 **** -0.82
10859 H 43.935939739870854 8.432141387602972 38.27034205337823 H 0.0 **** 0.41
10860 H 44.25009282272394 8.324553540499213 39.708192210806374 H 0.0 **** 0.41
10861 O 22.32092978199408 28.483513043380526 49.12405547225587 O 0.0 **** -0.82
10862 H 21.348262054420733 28.67149458286076 49.302241440473104 H 0.0 **** 0.41
10863 H 22.376949720890025 27.521728407428313 48.90504726522226 H 0.0 **** 0.41
10864 O 10.525396258355975 47.32096903367098 7.264391133433113 O 0.0 **** -0.82
10865 H 9.611008538087638 47.062852868311154 7.573626841582191 H 0.0 **** 0.41
10866 H 10.507423181478657 47.11479670401496 6.258737014876203 H 0.0 **** 0.41
10867 O 40.44865328564732 42.939730123160984 32.09347054925149 O 0.0 **** -0.82
10868 H 39.838666771381504 43.40554306340968 31.419177512789076 H 0.0 **** 0.41
10869 H 40.19815126055275 41.92622619036549 32.05827457712273 H 0.0 **** 0.41
10870 O 27.405507026762216 8.25169315708336 48.12769183916718 O 0.0 **** -0.82
10871 H 27.37732737812467 7.424776301897879 48.77910381476207 H 0.0 **** 0.41
10872 H 27.041329515519667 8.97371449870925 48.80856709153791 H 0.0 **** 0.41
10873 O 40.0159676211514 40.13790027988611 37.025422260846916 O 0.0 **** -0.82
10874 H 40.0039780604806 39.17011828260422 36.81944095362442 H 0.0 **** 0.41
10875 H 40.84931683506284 40.401614711548724 37.41608369366046 H 0.0 **** 0.41
10876 O 21.05264097572679 16.428104551946575 5.184018811831987 O 0.0 **** -0.82
10877 H 21.82385565873166 16.868645969395942 4.692964088714882 H 0.0 **** 0.41
10878 H 21.65641333037415 15.938221769245473 5.889802174052293 H 0.0 **** 0.41
10879 O 38.66378628410134 14.278422576984525 39.41541582034487 O 0.0 **** -0.82
10880 H 39.61552603653034 14.215488615901108 39.14028463797618 H 0.0 **** 0.41
10881 H 38.682189646505684 14.477612077950738 40.397335369031396 H 0.0 **** 0.41
10882 O 46.250403457160644 1.2725537619249634 22.521066260972972 O 0.0 **** -0.82
10883 H 47.132367558996044 1.7589301181029742 22.727081235888704 H 0.0 **** 0.41
10884 H 45.91283595052601 0.9326770363338587 23.34091769622745 H 0.0 **** 0.41
10885 O 41.15209104483728 18.440144859925418 14.999951539160817 O 0.0 **** -0.82
10886 H 40.33479743541741 17.91628574246559 15.25193116204245 H 0.0 **** 0.41
10887 H 41.63535653346385 18.656429751523522 15.878240124125472 H 0.0 **** 0.41
10888 O 28.93452870394355 29.681718510155193 24.07301200214397 O 0.0 **** -0.82
10889 H 28.49763191333062 29.1129649907881 24.754796776127705 H 0.0 **** 0.41
10890 H 28.283079740962325 30.3350052031154 23.662889786709513 H 0.0 **** 0.41
10891 O 13.531813348937103 42.72496416767823 33.926676858108856 O 0.0 **** -0.82
10892 H 14.227232800096584 42.02616414167994 33.7860365951035 H 0.0 **** 0.41
10893 H 13.77749794409905 43.49003967008607 33.31568499934673 H 0.0 **** 0.41
10894 O 13.715915737769073 7.470495630811187 25.409682899497184 O 0.0 **** -0.82
10895 H 14.1374334616326 7.828025540897592 24.58701882231894 H 0.0 **** 0.41
10896 H 14.188439164345866 6.5957088128173655 25.536432303980547 H 0.0 **** 0.41
10897 O 14.353103697695218 3.677347730228796 47.56755925469564 O 0.0 **** -0.82
10898 H 14.347628900486995 3.6098662737329192 46.560695044128245 H 0.0 **** 0.41
10899 H 14.822893380668617 2.8285874349655415 47.92535270090599 H 0.0 **** 0.41
10900 O 13.788552250300093 25.15610119823921 8.027766541556772 O 0.0 **** -0.82
10901 H 13.61208000738391 24.832290412924085 7.094360897024998 H 0.0 **** 0.41
10902 H 13.057244814019866 25.817177599848886 8.196663821788258 H 0.0 **** 0.41
10903 O 10.614210492912882 1.131223996596205 16.78510234183247 O 0.0 **** -0.82
10904 H 10.746771426298622 0.4908864576445069 17.629028140756745 H 0.0 **** 0.41
10905 H 10.910496420953592 0.5058711741217294 16.028614480213747 H 0.0 **** 0.41
10906 O 3.298228815366806 49.956121554824456 3.9678145264133184 O 0.0 **** -0.82
10907 H 3.360678095915545 49.388809374466994 3.1304062151869374 H 0.0 **** 0.41
10908 H 4.1609823155903465 49.75194812908888 4.474455657742618 H 0.0 **** 0.41
10909 O 0.3193308334549627 30.76269503075606 15.696451284901116 O 0.0 **** -0.82
10910 H -0.33566944665653864 30.170791680582465 16.23333382354525 H 0.0 **** 0.41
10911 H 1.1062385211932693 30.116251262700764 15.559660563655214 H 0.0 **** 0.41
10912 O 5.162169141283509 22.534822936245916 26.161651230095593 O 0.0 **** -0.82
10913 H 5.140821394455802 21.619269825125514 26.615214698842518 H 0.0 **** 0.41
10914 H 4.431882079237836 23.15933746124216 26.54911482590339 H 0.0 **** 0.41
10915 O 10.005936178460148 46.30855863205386 14.416940605723823 O 0.0 **** -0.82
10916 H 10.373963914594652 46.2793257063154 13.463894741257704 H 0.0 **** 0.41
10917 H 9.132848165704058 45.73226143715545 14.343180781793066 H 0.0 **** 0.41
10918 O 4.815553532643534 7.234539093926202 1.5855719125939414 O 0.0 **** -0.82
10919 H 4.4260623396688885 7.986896132776522 2.1441324025024056 H 0.0 **** 0.41
10920 H 5.509598812416719 6.697721045915991 2.170483741230958 H 0.0 **** 0.41
10921 O 18.46737866472643 3.5937654193272905 36.0546766211704 O 0.0 **** -0.82
10922 H 18.900692669675287 4.082176051972652 35.28408215684151 H 0.0 **** 0.41
10923 H 17.899377661549984 4.305469566102246 36.530740160696176 H 0.0 **** 0.41
10924 O 1.2580017738094469 43.55151727348556 22.469861681120896 O 0.0 **** -0.82
10925 H 0.4848193338993312 43.8560446520491 23.04750435218831 H 0.0 **** 0.41
10926 H 1.9512444318526434 43.265987646301305 23.186456454093406 H 0.0 **** 0.41
10927 O 42.00411460151981 18.133272442798017 41.74164610802639 O 0.0 **** -0.82
10928 H 41.56606458780529 19.08039748246248 41.49093578089202 H 0.0 **** 0.41
10929 H 42.918441113884924 18.37981595500473 42.166214390192174 H 0.0 **** 0.41
10930 O 43.79248024520105 3.4560613263205133 6.811835926875837 O 0.0 **** -0.82
10931 H 43.92922540236581 3.0240536587955438 5.861749246071589 H 0.0 **** 0.41
10932 H 42.99067848719185 3.0021398761585183 7.220271271272459 H 0.0 **** 0.41
10933 O 41.22177655151496 32.39688182687188 31.1156881975509 O 0.0 **** -0.82
10934 H 41.02179235972916 31.607785021148324 31.60011442257112 H 0.0 **** 0.41
10935 H 41.6219014757931 32.913665232633136 31.869823697309258 H 0.0 **** 0.41
10936 O 38.33366999058645 4.0287491674434435 45.756852830286746 O 0.0 **** -0.82
10937 H 39.29714456949165 3.761654029486351 45.86409331059092 H 0.0 **** 0.41
10938 H 38.10506448040819 4.282092664449941 46.751004270629586 H 0.0 **** 0.41
10939 O 32.3999491360172 28.545323359725955 24.10206160992713 O 0.0 **** -0.82
10940 H 31.635237495355085 29.07019123574979 24.40733554212845 H 0.0 **** 0.41
10941 H 33.2639122558118 28.956626878365498 24.517300350579777 H 0.0 **** 0.41
10942 O 9.410750852136452 28.20741138183279 27.394144757443662 O 0.0 **** -0.82
10943 H 9.34597368623038 28.48709317936933 28.354001616016113 H 0.0 **** 0.41
10944 H 10.048025296904768 27.460059901590142 27.389130605816945 H 0.0 **** 0.41
10945 O 24.374278595904887 8.138068876870506 4.4791324400745935 O 0.0 **** -0.82
10946 H 24.064527623410818 7.585552640636498 3.6938313950960193 H 0.0 **** 0.41
10947 H 25.371317767095352 8.409248269163827 4.398315140212482 H 0.0 **** 0.41
10948 O 23.295338350119362 43.98592811195799 3.9026130175729534 O 0.0 **** -0.82
10949 H 22.90916880198181 43.388609066453164 3.16567739247931 H 0.0 **** 0.41
10950 H 22.49411913917951 43.94078125601588 4.424512695416723 H 0.0 **** 0.41
10951 O 41.52997810354912 6.051931215182732 31.08366752535283 O 0.0 **** -0.82
10952 H 42.19029110046216 5.336359101099977 31.137496599557913 H 0.0 **** 0.41
10953 H 40.911000434036374 5.965692596887839 31.85017653366337 H 0.0 **** 0.41
10954 O 41.65470956793989 7.627529766319238 11.690486238474074 O 0.0 **** -0.82
10955 H 41.33860902640516 8.40560749744217 11.154004948545364 H 0.0 **** 0.41
10956 H 42.36689909481802 7.270756435232469 11.1060125151625 H 0.0 **** 0.41
10957 O 48.099570064842794 39.7772369857808 6.316999442335847 O 0.0 **** -0.82
10958 H 48.04831507418021 39.963347831542166 7.320984371274065 H 0.0 **** 0.41
10959 H 47.38694135724642 40.2819850017843 5.750031160692565 H 0.0 **** 0.41
10960 O 1.8675355724901668 13.529108783690138 21.41542972858129 O 0.0 **** -0.82
10961 H 2.761979090374326 14.00867126331827 21.69504967100056 H 0.0 **** 0.41
10962 H 1.997475032425889 12.536354035891128 21.631606612163964 H 0.0 **** 0.41
10963 O 44.8952806919649 46.96999824300761 45.53589279793835 O 0.0 **** -0.82
10964 H 44.252022136400136 46.5650432770468 44.89656799660639 H 0.0 **** 0.41
10965 H 44.95474658327317 46.22209721767635 46.205035437197125 H 0.0 **** 0.41
10966 O 30.379365511374974 15.851524353241487 5.347002509688835 O 0.0 **** -0.82
10967 H 30.679931798007196 16.56018676901516 4.6916441282453505 H 0.0 **** 0.41
10968 H 29.57856142656372 15.369956808786498 4.848734349270245 H 0.0 **** 0.41
10969 O 24.155921912840313 30.048448887047453 0.6056977036847115 O 0.0 **** -0.82
10970 H 23.82486081468781 29.06432350203715 0.6626489668115667 H 0.0 **** 0.41
10971 H 25.003031742418756 30.01134242512193 0.000866185932920871 H 0.0 **** 0.41
10972 O 42.24207373032106 35.82680635771857 0.17723653789328328 O 0.0 **** -0.82
10973 H 42.8057406690208 36.043347265782614 1.0284152004997862 H 0.0 **** 0.41
10974 H 42.444191782082434 34.832564416188454 0.0065104201511358 H 0.0 **** 0.41
10975 O 43.70007021878344 7.037327373503822 15.299861571360665 O 0.0 **** -0.82
10976 H 42.7289921813723 7.124013437519423 15.650439899041157 H 0.0 **** 0.41
10977 H 43.631777289918 7.4959739808005095 14.430777757979506 H 0.0 **** 0.41
10978 O 1.0339619666385043 9.130792279957682 43.63710307116467 O 0.0 **** -0.82
10979 H 0.829277874225611 9.995693341381644 44.16325887947277 H 0.0 **** 0.41
10980 H 0.18171645006857023 8.577920828389328 43.753165803906164 H 0.0 **** 0.41
10981 O 42.14754042275801 26.35516219171798 33.21338614011827 O 0.0 **** -0.82
10982 H 42.326720648170536 27.021697473791306 32.47648628664553 H 0.0 **** 0.41
10983 H 42.03367033082256 25.51899566098507 32.65777232756752 H 0.0 **** 0.41
10984 O 33.912936794878824 43.345136569570045 30.275933384743677 O 0.0 **** -0.82
10985 H 33.789504725437325 44.26610303695787 30.60402804588798 H 0.0 **** 0.41
10986 H 33.09900502131322 42.73487680460487 30.458584077156374 H 0.0 **** 0.41
10987 O 41.16021118417998 38.62107678709853 20.536112976923317 O 0.0 **** -0.82
10988 H 41.40486436124482 39.064722978937 21.432736092810927 H 0.0 **** 0.41
10989 H 41.017678679366774 39.39389836008626 19.90936458431659 H 0.0 **** 0.41
10990 O 24.700796346748305 46.906889348205084 36.93282997355106 O 0.0 **** -0.82
10991 H 24.10146278228038 46.081992450273354 37.0003793753506 H 0.0 **** 0.41
10992 H 25.640216135188155 46.57232995996071 36.898870277108 H 0.0 **** 0.41
10993 O 45.57313869335671 46.33753568058247 16.757416338597622 O 0.0 **** -0.82
10994 H 44.65415016662914 46.54694773853206 17.186873915982094 H 0.0 **** 0.41
10995 H 45.56603356650933 45.34559795764618 16.589554123511764 H 0.0 **** 0.41
10996 O 19.22758942297618 18.110493394616327 10.554070038114247 O 0.0 **** -0.82
10997 H 19.755963217190697 17.469413024916776 10.994998062819562 H 0.0 **** 0.41
10998 H 19.697875735379185 18.44496274925916 9.739965204262987 H 0.0 **** 0.41
10999 O 38.29155680952967 7.307701099196694 4.996213266768535 O 0.0 **** -0.82
11000 H 38.62336032984631 7.185867513463031 5.896190211552451 H 0.0 **** 0.41
11001 H 39.05102032255278 7.081839231401411 4.37246059322689 H 0.0 **** 0.41
11002 O 49.75897552285122 36.19624266992216 15.093688877428436 O 0.0 **** -0.82
11003 H 50.05116314161557 35.191024637072275 15.233725836015166 H 0.0 **** 0.41
11004 H 49.403419382667174 36.517300738814455 16.010822041883024 H 0.0 **** 0.41
11005 O 17.627787177593852 5.549300199046995 13.227088135410867 O 0.0 **** -0.82
11006 H 16.94745151728717 4.966772657626225 13.732148998487837 H 0.0 **** 0.41
11007 H 16.95279972926037 6.035949335110037 12.676790729419459 H 0.0 **** 0.41
11008 O 10.523392994345173 27.10632468073538 4.55013635510012 O 0.0 **** -0.82
11009 H 10.773186523650118 27.264229204852118 3.6135220757650526 H 0.0 **** 0.41
11010 H 11.402576479295952 27.295722701527616 5.063852300580728 H 0.0 **** 0.41
11011 O 43.254302007930825 18.80417348638251 3.9405304014909786 O 0.0 **** -0.82
11012 H 43.31459283806636 18.971384288576555 4.926074644777809 H 0.0 **** 0.41
11013 H 42.91008950279654 17.87473951634864 3.9434722687713095 H 0.0 **** 0.41
11014 O 2.1913385253230757 28.359438580142097 49.42424999959436 O 0.0 **** -0.82
11015 H 1.4390140368418827 28.78579107979131 48.90082578972654 H 0.0 **** 0.41
11016 H 1.9524952349986506 27.423329924685476 49.595863948206336 H 0.0 **** 0.41
11017 O 29.181835036251282 41.412782426398294 5.226191437075814 O 0.0 **** -0.82
11018 H 29.808199881334644 42.25769075317788 5.255487354982422 H 0.0 **** 0.41
11019 H 29.13883102756156 41.25151528697183 6.220050096857609 H 0.0 **** 0.41
11020 O 7.404093511905837 26.45176076894775 24.36329665595903 O 0.0 **** -0.82
11021 H 7.112246946738277 27.397896018075812 24.621071651001998 H 0.0 **** 0.41
11022 H 7.324369164404106 25.937023250377507 25.232781577004857 H 0.0 **** 0.41
11023 O 44.242456654303815 7.732624877511702 45.557870437761125 O 0.0 **** -0.82
11024 H 43.97115201095117 6.868402351401093 45.93271973524547 H 0.0 **** 0.41
11025 H 44.38848414935724 7.43313668097706 44.610587359640995 H 0.0 **** 0.41
11026 O 19.95162490745118 33.916212179227735 16.49552050113526 O 0.0 **** -0.82
11027 H 20.723376206575583 33.68012543658439 15.88702303196513 H 0.0 **** 0.41
11028 H 20.23973729063352 34.7291551025181 17.021449554327646 H 0.0 **** 0.41
11029 O 30.987076753026944 16.24174243659893 22.375527805667286 O 0.0 **** -0.82
11030 H 30.906379006186544 15.20861073357027 22.458395801973797 H 0.0 **** 0.41
11031 H 31.5825416119299 16.446647481357555 21.584977911978594 H 0.0 **** 0.41
11032 O 40.117734085953124 30.405830566138278 21.67238965952554 O 0.0 **** -0.82
11033 H 39.31323067399009 30.616583149587242 21.096648588334634 H 0.0 **** 0.41
11034 H 40.77797876232499 31.055252910715453 21.271390092273936 H 0.0 **** 0.41
11035 O 46.65693245568485 33.59149341897877 20.797119327149794 O 0.0 **** -0.82
11036 H 45.87132631694635 34.16690905097982 20.4465816442779 H 0.0 **** 0.41
11037 H 46.34562289490933 33.29810411167384 21.745064911917254 H 0.0 **** 0.41
11038 O 15.239096509845998 18.87383442360328 6.183777083831666 O 0.0 **** -0.82
11039 H 14.319107137024703 18.955713078816693 5.774876250997322 H 0.0 **** 0.41
11040 H 15.047913746583404 18.433447457414584 7.052562447920466 H 0.0 **** 0.41
11041 O 11.080221448360517 25.617603850123842 10.703784659455348 O 0.0 **** -0.82
11042 H 10.174234562051074 25.309354258253517 11.053952460500053 H 0.0 **** 0.41
11043 H 10.92986959871321 25.547922369934216 9.678838912069411 H 0.0 **** 0.41
11044 O 49.384439397153685 25.118177215442934 0.5472527509516726 O 0.0 **** -0.82
11045 H 48.61006761432461 24.60410468729279 0.20207050417370678 H 0.0 **** 0.41
11046 H 50.094450805553386 24.35253191879305 0.5143136408166372 H 0.0 **** 0.41
11047 O 1.4901229756720695 7.796355532634764 19.59292216791214 O 0.0 **** -0.82
11048 H 1.3360745723313172 7.271913280935618 18.715520970060147 H 0.0 **** 0.41
11049 H 0.645771401828975 7.807152109025264 20.12478069498916 H 0.0 **** 0.41
11050 O 9.109864394152808 23.604168374142265 16.853990402219136 O 0.0 **** -0.82
11051 H 10.060579516459356 23.94389443052113 17.16456843497077 H 0.0 **** 0.41
11052 H 8.602121739601131 23.79973188922856 17.66584866910282 H 0.0 **** 0.41
11053 O 26.318266252323067 8.5055258961463 39.958751896427046 O 0.0 **** -0.82
11054 H 26.77415691257821 9.29624816185306 39.437469281335034 H 0.0 **** 0.41
11055 H 25.291589766311006 8.813571092758917 39.95334811451924 H 0.0 **** 0.41
11056 O 4.287730614933324 41.34476550528934 33.022567939783045 O 0.0 **** -0.82
11057 H 5.216413631584942 41.27356019878687 33.43266402647234 H 0.0 **** 0.41
11058 H 3.625233928488761 40.88819020255908 33.70653297728734 H 0.0 **** 0.41
11059 O 1.8273728339273205 10.169173863373086 24.527029850715774 O 0.0 **** -0.82
11060 H 1.8267134386215602 9.162288309743703 24.438278480208652 H 0.0 **** 0.41
11061 H 2.5041711768012718 10.532588418941126 25.153738930502826 H 0.0 **** 0.41
11062 O 10.50164613584699 25.51390211311174 21.552655784521843 O 0.0 **** -0.82
11063 H 10.821105021693953 26.45038594315042 21.682232347478028 H 0.0 **** 0.41
11064 H 11.331464466753374 24.997489405260875 21.292029393582446 H 0.0 **** 0.41
11065 O 19.550595665904087 41.569345232673946 9.997568849537606 O 0.0 **** -0.82
11066 H 20.319013506487654 42.03012882783901 9.43595878681814 H 0.0 **** 0.41
11067 H 19.347241281192055 42.149337716929026 10.873489488854664 H 0.0 **** 0.41
11068 O 47.668496957793444 26.320787393796106 7.607648584445923 O 0.0 **** -0.82
11069 H 48.47895416478517 25.940326770380302 7.945169362992141 H 0.0 **** 0.41
11070 H 47.33845490567376 26.812803525282835 8.399516204743206 H 0.0 **** 0.41
11071 O 49.461097368518786 41.91856918201427 20.40507378687016 O 0.0 **** -0.82
11072 H 49.91055301325753 41.853610662934486 19.455943831289677 H 0.0 **** 0.41
11073 H 50.135082664450046 42.29921686828913 21.096007604247436 H 0.0 **** 0.41
11074 O 25.455153798630462 15.501427485835437 40.64240704161402 O 0.0 **** -0.82
11075 H 24.623883107845085 16.048904151044848 40.51235884434026 H 0.0 **** 0.41
11076 H 26.156119262728787 16.106744493698514 40.13502549530038 H 0.0 **** 0.41
11077 O 28.091945970957227 2.0579032121436356 10.939960566105086 O 0.0 **** -0.82
11078 H 27.123617867148383 1.8186454642612873 10.654039581671352 H 0.0 **** 0.41
11079 H 28.5190424030544 2.314573122517558 10.008993039756094 H 0.0 **** 0.41
11080 O 44.382942821696474 36.38561654002119 7.2687033619181705 O 0.0 **** -0.82
11081 H 43.42610549758667 36.85761036256194 7.19192985510459 H 0.0 **** 0.41
11082 H 44.20111959760843 35.377052678230214 7.433110962127685 H 0.0 **** 0.41
11083 O 45.80790611077291 10.93056349549736 15.052529841578046 O 0.0 **** -0.82
11084 H 45.102318926982115 11.224964353314917 14.394069002312674 H 0.0 **** 0.41
11085 H 45.34630620347949 10.788394888151666 15.929288382125783 H 0.0 **** 0.41
11086 O 43.98799273507965 31.722397604865538 45.97403502781663 O 0.0 **** -0.82
11087 H 43.127034812686404 31.4549030435921 45.54250691417825 H 0.0 **** 0.41
11088 H 44.335971735749325 30.822469423195425 46.354997152387284 H 0.0 **** 0.41
11089 O 34.311770290285764 23.901490656897973 4.1745306193981975 O 0.0 **** -0.82
11090 H 33.87359045930722 23.65201251314138 3.305316644401479 H 0.0 **** 0.41
11091 H 34.342720989384205 23.020637168348287 4.680808480063618 H 0.0 **** 0.41
11092 O 5.726860425279973 29.889897212321966 15.729192712757168 O 0.0 **** -0.82
11093 H 6.2747423285895465 29.501929297077137 16.473728784791064 H 0.0 **** 0.41
11094 H 5.927734546758671 30.809908623190402 16.00152786589001 H 0.0 **** 0.41
11095 O 8.737442482656546 42.02038986589314 44.88282202174524 O 0.0 **** -0.82
11096 H 9.697635581712557 41.8726062946017 44.64792456879124 H 0.0 **** 0.41
11097 H 8.178403782966095 41.92420264873457 44.01121330415515 H 0.0 **** 0.41
11098 O 11.565295881006081 24.402908483853608 18.08057204522953 O 0.0 **** -0.82
11099 H 11.884970713853969 24.471425060219687 19.04119670094539 H 0.0 **** 0.41
11100 H 12.165650594785928 24.858316749876494 17.410013422811712 H 0.0 **** 0.41
11101 O 34.62520845517603 9.698467998094337 29.07875818947637 O 0.0 **** -0.82
11102 H 34.02287238297493 9.853348853514825 28.29237972468473 H 0.0 **** 0.41
11103 H 35.3104406912642 10.342135177430139 28.83059014455564 H 0.0 **** 0.41
11104 O 29.913383146660045 8.859026560439519 38.941752885038895 O 0.0 **** -0.82
11105 H 30.80073600753529 8.63147391827425 39.336420574153976 H 0.0 **** 0.41
11106 H 29.44973320601362 8.047259939180124 38.57178017901013 H 0.0 **** 0.41
11107 O 21.906687844380293 46.9719011016792 16.412482673372914 O 0.0 **** -0.82
11108 H 22.33849536595596 46.36873894354452 17.168580844069687 H 0.0 **** 0.41
11109 H 21.668985108917738 46.18804814266722 15.825733654690035 H 0.0 **** 0.41
11110 O 17.81289026784296 22.673818708928795 42.40772476207164 O 0.0 **** -0.82
11111 H 17.34575748714508 23.547272288359835 42.6304532597477 H 0.0 **** 0.41
11112 H 18.473659732684823 22.897106759207844 41.68480397838824 H 0.0 **** 0.41
11113 O 17.552207637027916 47.39507180452241 13.947724956750235 O 0.0 **** -0.82
11114 H 17.580198499667652 48.20638527017136 13.31871222991846 H 0.0 **** 0.41
11115 H 18.418367500506214 47.57165307242181 14.468763413424583 H 0.0 **** 0.41
11116 O 39.09312431501202 44.06504719760585 47.66285596438741 O 0.0 **** -0.82
11117 H 38.599676296397355 43.12914041566408 47.694420800057436 H 0.0 **** 0.41
11118 H 38.47011542759774 44.79080237804745 47.941694129568475 H 0.0 **** 0.41
11119 O 32.12446768268041 49.61033436842037 39.21828919879951 O 0.0 **** -0.82
11120 H 31.690265219408214 48.677147447632635 39.395585395681785 H 0.0 **** 0.41
11121 H 31.30831705484277 50.18852791806689 39.253987098903856 H 0.0 **** 0.41
11122 O 48.00185078058896 35.64122930541281 49.25913698894368 O 0.0 **** -0.82
11123 H 47.26893018598783 35.955996557343106 48.5921409131925 H 0.0 **** 0.41
11124 H 48.75559418785034 35.13381928656477 48.763924983990975 H 0.0 **** 0.41
11125 O 38.955139975317394 16.499137653966017 15.111213556133151 O 0.0 **** -0.82
11126 H 38.28816417270904 15.7883728010573 14.875980382369688 H 0.0 **** 0.41
11127 H 39.85362036529108 16.236551997306776 14.78804811963137 H 0.0 **** 0.41
11128 O 46.03753071077638 45.72904755007297 28.134609457739632 O 0.0 **** -0.82
11129 H 46.326785971558984 45.65202860717058 27.189288880436816 H 0.0 **** 0.41
11130 H 46.06610804205659 44.813188126466464 28.63131036541063 H 0.0 **** 0.41
11131 O 40.65725022198177 30.471043900498987 5.826537241604859 O 0.0 **** -0.82
11132 H 41.46331391989066 30.21652617587441 5.27905002694071 H 0.0 **** 0.41
11133 H 39.91346934253131 30.728368736396618 5.146283880286604 H 0.0 **** 0.41
11134 O 9.54045772256194 12.396816785317299 32.19540907133602 O 0.0 **** -0.82
11135 H 9.572735716359446 12.77815462670938 31.212502698675316 H 0.0 **** 0.41
11136 H 8.888091365008322 12.943504192787174 32.72265378595118 H 0.0 **** 0.41
11137 O 15.20306606361288 48.99869631478727 43.3012877583212 O 0.0 **** -0.82
11138 H 15.29809886843099 49.69701428369325 44.08047906136878 H 0.0 **** 0.41
11139 H 16.114611615812997 48.49485858773097 43.3416233208038 H 0.0 **** 0.41
11140 O 22.669034457183383 25.694282539266982 49.20879621361319 O 0.0 **** -0.82
11141 H 21.965117330312484 25.09150209385054 48.768118026832425 H 0.0 **** 0.41
11142 H 22.708980398967764 25.476203185835686 50.165938729006335 H 0.0 **** 0.41
11143 O 24.936834257627492 44.16111540342081 9.185961371400268 O 0.0 **** -0.82
11144 H 24.568384318349235 45.04802609787161 8.934263427454113 H 0.0 **** 0.41
11145 H 25.896757766677727 44.1422431021485 8.841055451960074 H 0.0 **** 0.41
11146 O 14.590387073098494 27.534433880938966 27.305047502804666 O 0.0 **** -0.82
11147 H 15.598345859303208 27.65128130636733 27.246840226476163 H 0.0 **** 0.41
11148 H 14.479831353071493 26.529840332283744 27.293478843900832 H 0.0 **** 0.41
11149 O 19.631084574162934 22.203652563308555 32.63706052229758 O 0.0 **** -0.82
11150 H 20.320137160205086 21.98070145026398 33.411298180788464 H 0.0 **** 0.41
11151 H 18.740367701268593 21.74961423880764 32.813651774540475 H 0.0 **** 0.41
11152 O 33.442508358886506 10.625285666212132 40.73846649751768 O 0.0 **** -0.82
11153 H 34.07179788140599 10.409802002506957 41.466218306529754 H 0.0 **** 0.41
11154 H 33.49364484120943 11.664748595785639 40.659078204818236 H 0.0 **** 0.41
11155 O 49.466157192898315 22.491368505541974 13.15120403600924 O 0.0 **** -0.82
11156 H 49.4009168264452 21.582197383484164 13.533866807440404 H 0.0 **** 0.41
11157 H 49.5002603221239 23.13919453231545 13.910249203550237 H 0.0 **** 0.41
11158 O 6.109594231583387 26.49436792410681 36.028970310978046 O 0.0 **** -0.82
11159 H 6.013062975609017 25.916814858197558 36.83593711783109 H 0.0 **** 0.41
11160 H 5.259972529130636 27.060612395551264 36.10848614403871 H 0.0 **** 0.41
11161 O 8.99280227348024 33.55365515511161 14.457465141302123 O 0.0 **** -0.82
11162 H 9.632729605952326 32.84577879122176 14.91152469178391 H 0.0 **** 0.41
11163 H 9.342975190137567 34.37086178467724 14.890181069976379 H 0.0 **** 0.41
11164 O 20.565857434648166 11.075440458803627 1.5676271599675748 O 0.0 **** -0.82
11165 H 20.708566562862018 11.743188750998927 0.8576090786011769 H 0.0 **** 0.41
11166 H 19.578750844748967 11.180899213219368 1.656058985389312 H 0.0 **** 0.41
11167 O 44.38631524423549 22.98649422264317 45.7838863329939 O 0.0 **** -0.82
11168 H 43.575656260797814 23.553657291924015 45.77842909320878 H 0.0 **** 0.41
11169 H 44.5528077612748 22.92847854485053 46.7832253595356 H 0.0 **** 0.41
11170 O 0.5821530687321257 33.56556163928612 15.874157979250018 O 0.0 **** -0.82
11171 H 0.3964545044817811 32.56916267950873 15.716359499491157 H 0.0 **** 0.41
11172 H 0.8930305520264596 33.652209900628634 16.825695567140393 H 0.0 **** 0.41
11173 O 38.335728811427465 6.137500027757355 26.40224741633806 O 0.0 **** -0.82
11174 H 37.34675659583982 6.315140389992422 26.668544052645082 H 0.0 **** 0.41
11175 H 38.80388186953289 5.8929685258860545 27.27678424174503 H 0.0 **** 0.41
11176 O 2.8234784181533428 44.12201664755702 4.621911113163534 O 0.0 **** -0.82
11177 H 2.713715163445613 43.541462873876355 5.43540400260494 H 0.0 **** 0.41
11178 H 3.283065354362428 43.58238486693322 3.9404950959560594 H 0.0 **** 0.41
11179 O 8.543322897562796 36.621256960256 17.24242007393022 O 0.0 **** -0.82
11180 H 7.8545573986547765 36.89445485469103 16.56522286217765 H 0.0 **** 0.41
11181 H 8.08123430751403 35.92530017562404 17.747705249297027 H 0.0 **** 0.41
11182 O 21.438614632729735 28.27780741604588 20.6676023793179 O 0.0 **** -0.82
11183 H 22.375356400487174 28.080146166732863 20.424618258734014 H 0.0 **** 0.41
11184 H 21.06720393916446 27.603011876615597 21.30290311439161 H 0.0 **** 0.41
11185 O 34.997697092818385 2.383350074785761 49.97033939079047 O 0.0 **** -0.82
11186 H 34.24595409687959 2.2696120656198318 50.58551216065167 H 0.0 **** 0.41
11187 H 35.503020017511645 3.1344816287921193 50.39045293408281 H 0.0 **** 0.41
11188 O 48.09644668077502 31.907230690409122 11.688356288527444 O 0.0 **** -0.82
11189 H 48.86266472695016 31.533994917668217 12.261530668536864 H 0.0 **** 0.41
11190 H 48.42056605740405 32.7300049229276 11.18892545625738 H 0.0 **** 0.41
11191 O 26.65786435791079 27.653335855939364 13.208448249580428 O 0.0 **** -0.82
11192 H 26.819998447656168 28.351642405048064 13.915165477370987 H 0.0 **** 0.41
11193 H 26.895803882581077 26.758875036400635 13.592984776734442 H 0.0 **** 0.41
11194 O 0.9925813455424136 29.943290771625424 5.222778555040051 O 0.0 **** -0.82
11195 H 0.47717701762677506 29.723511081904054 4.3709617992232666 H 0.0 **** 0.41
11196 H 1.3981582070465008 30.811223654944943 4.97088534626662 H 0.0 **** 0.41
11197 O 35.465143874254885 25.144144211624212 47.144721671783884 O 0.0 **** -0.82
11198 H 36.081090702483976 25.89542529678607 47.481640035058774 H 0.0 **** 0.41
11199 H 35.42077631483657 25.407365169842535 46.21901137544345 H 0.0 **** 0.41
11200 O 11.318492414562474 39.46818034705863 49.3755210042298 O 0.0 **** -0.82
11201 H 10.462429915655283 39.253577350359606 49.86259779828147 H 0.0 **** 0.41
11202 H 10.991229411804307 40.10569106319771 48.62338476780145 H 0.0 **** 0.41
11203 O 29.111856607980258 29.480849662623083 14.00686381323429 O 0.0 **** -0.82
11204 H 28.629231596009518 30.07176237507079 14.704054377977538 H 0.0 **** 0.41
11205 H 28.754987762460626 29.84127951376362 13.142151521723964 H 0.0 **** 0.41
11206 O 34.64412495662529 21.775774146047922 5.859008763042951 O 0.0 **** -0.82
11207 H 34.4977443649403 20.82225197601113 5.687284048791206 H 0.0 **** 0.41
11208 H 35.575542521561715 21.929001922275873 6.172496330993866 H 0.0 **** 0.41
11209 O 27.686670585645054 20.243335456323518 35.83652683768443 O 0.0 **** -0.82
11210 H 27.001403410301005 20.699118998154056 35.23134115228735 H 0.0 **** 0.41
11211 H 28.364896804250986 20.980862367110674 36.03261887421833 H 0.0 **** 0.41
11212 O 42.590092871197065 49.33321284929407 24.695329244896485 O 0.0 **** -0.82
11213 H 41.91185347397229 48.758821712415596 24.17612320257255 H 0.0 **** 0.41
11214 H 42.19916371547327 50.256385283955844 24.544132314553238 H 0.0 **** 0.41
11215 O 26.64812937949612 36.811372190065335 47.92639751176043 O 0.0 **** -0.82
11216 H 25.63770832348178 36.54862644456317 47.840662892224614 H 0.0 **** 0.41
11217 H 26.999116190330348 36.12602521628913 48.66956356025746 H 0.0 **** 0.41
11218 O 25.851275230759118 13.254070266192976 42.08234850965764 O 0.0 **** -0.82
11219 H 25.59064705309214 14.060699244379771 41.53978865772936 H 0.0 **** 0.41
11220 H 26.681905615955927 12.86634309973296 41.70172577541179 H 0.0 **** 0.41
11221 O 49.921615715244485 29.970015438995617 26.794942946945916 O 0.0 **** -0.82
11222 H 49.150916201462486 29.491535895804617 26.27780559141123 H 0.0 **** 0.41
11223 H 50.64312076756968 30.251417795742764 26.180518916801322 H 0.0 **** 0.41
11224 O 13.892139129388092 31.663009205431273 12.636206365963043 O 0.0 **** -0.82
11225 H 13.745985045454766 31.796950810094167 13.679195008738958 H 0.0 **** 0.41
11226 H 14.874993730056133 31.356685031657335 12.618710707500837 H 0.0 **** 0.41
11227 O 33.576338850956255 16.894746403814914 3.829439048590639 O 0.0 **** -0.82
11228 H 33.27283573804146 16.336075729693945 3.0145663625069767 H 0.0 **** 0.41
11229 H 32.61302119114211 16.98379707083616 4.262419302136533 H 0.0 **** 0.41
11230 O 12.674943397316182 45.83965389754485 8.232414103159359 O 0.0 **** -0.82
11231 H 12.068053679731381 46.6211856801235 7.876518780563387 H 0.0 **** 0.41
11232 H 12.821711059330337 45.5090572354305 7.279729456563369 H 0.0 **** 0.41
11233 O 33.78874588990306 22.707925059086648 14.623550416490517 O 0.0 **** -0.82
11234 H 34.681563330280554 23.151279413285156 14.897495839650666 H 0.0 **** 0.41
11235 H 33.03797430030529 23.39138315948756 14.906484280042235 H 0.0 **** 0.41
11236 O 4.737502848894309 27.64288714519826 47.93441686377088 O 0.0 **** -0.82
11237 H 4.785601561155346 26.94422561356214 47.26095544992364 H 0.0 **** 0.41
11238 H 3.7396489205716463 27.740898415509196 48.3117312890065 H 0.0 **** 0.41
11239 O 45.33133297302356 42.861883931335036 32.31609021040146 O 0.0 **** -0.82
11240 H 44.83107921839216 42.08348549927638 31.854681236375317 H 0.0 **** 0.41
11241 H 44.595517393491576 43.34551894089481 32.890932859971684 H 0.0 **** 0.41
11242 O 12.264398174263022 49.50973916592994 42.432218191138816 O 0.0 **** -0.82
11243 H 12.300241402965113 49.69668327817542 41.45239470133461 H 0.0 **** 0.41
11244 H 13.206873368461295 49.28255853364939 42.69301629214951 H 0.0 **** 0.41
11245 O 36.59012550492888 5.068038618897255 16.88569951831121 O 0.0 **** -0.82
11246 H 35.59315747739703 5.120716185638855 16.935123435357678 H 0.0 **** 0.41
11247 H 36.96006468028732 5.485476404786233 17.771716035949 H 0.0 **** 0.41
11248 O 8.812754524073263 12.92049157690425 4.531824580118943 O 0.0 **** -0.82
11249 H 9.831595697842317 12.92204747470102 4.251414360087061 H 0.0 **** 0.41
11250 H 8.249540058167035 13.105112295018197 3.7250059635090125 H 0.0 **** 0.41
11251 O 35.21974633336633 39.077683524660465 41.16654114812893 O 0.0 **** -0.82
11252 H 36.059032776553906 39.61371043420781 41.16769884417941 H 0.0 **** 0.41
11253 H 34.78325869569544 39.27063784140699 42.08212990547738 H 0.0 **** 0.41
11254 O 43.02788993573182 8.202467548867531 2.703632930238703 O 0.0 **** -0.82
11255 H 43.684293280182565 8.751172028278866 3.199423196464609 H 0.0 **** 0.41
11256 H 42.78420212094827 8.698382001476986 1.84640290411501 H 0.0 **** 0.41
11257 O 45.685903968261066 30.943068084949413 20.298861355020964 O 0.0 **** -0.82
11258 H 45.07155583337508 30.821669303470824 21.088984225090098 H 0.0 **** 0.41
11259 H 46.091916698636155 31.854191977594187 20.508433215147818 H 0.0 **** 0.41
11260 O 16.247176946878355 31.72233439527849 26.42680172385292 O 0.0 **** -0.82
11261 H 16.390830382930886 32.48108099567856 27.09006339595224 H 0.0 **** 0.41
11262 H 15.667608925185121 30.98423242762223 26.753388071376527 H 0.0 **** 0.41
11263 O 13.136430879022214 1.5243277653046974 11.881095264761054 O 0.0 **** -0.82
11264 H 13.080573248178872 0.6934645501123811 12.541237630929741 H 0.0 **** 0.41
11265 H 12.441033695585773 2.163933109119043 12.266465000665999 H 0.0 **** 0.41
11266 O 25.924113435655475 23.22739132334342 9.980876259258935 O 0.0 **** -0.82
11267 H 26.63325009031593 23.7199165362418 9.537934643756161 H 0.0 **** 0.41
11268 H 26.109620321537367 22.255056033535137 10.017583497911595 H 0.0 **** 0.41
11269 O 43.61247456188174 23.492843965688632 18.677840685276948 O 0.0 **** -0.82
11270 H 43.872247457474764 24.042275726263362 17.843659196778813 H 0.0 **** 0.41
11271 H 43.99113826057093 23.912310713911435 19.508305128307136 H 0.0 **** 0.41
11272 O 22.94110613245236 39.290697868853144 42.38016129682257 O 0.0 **** -0.82
11273 H 22.4730965948487 40.15471044900424 42.67587429504171 H 0.0 **** 0.41
11274 H 23.051951467277007 39.44565115057555 41.35495848897469 H 0.0 **** 0.41
11275 O 18.845276792843574 9.776460706087747 21.30022390238094 O 0.0 **** -0.82
11276 H 18.369456161563157 9.787945821416969 20.412716268361965 H 0.0 **** 0.41
11277 H 19.823619954853015 9.904239958350523 21.08332212575603 H 0.0 **** 0.41
11278 O 22.03584110114149 40.220027286025456 28.820347324654584 O 0.0 **** -0.82
11279 H 21.533493328729406 39.76455091400901 28.1083320905811 H 0.0 **** 0.41
11280 H 21.34524320135986 40.52554922109122 29.494347827247466 H 0.0 **** 0.41
11281 O 48.0865047155522 43.628856863908894 34.986677621685324 O 0.0 **** -0.82
11282 H 47.96076801564297 44.201223459748306 35.77156900207932 H 0.0 **** 0.41
11283 H 48.76800820350718 42.85671946919294 35.215296574900286 H 0.0 **** 0.41
11284 O 19.904215994940106 6.250106058183024 0.7772314679201349 O 0.0 **** -0.82
11285 H 19.39574193211232 6.361216541309737 1.6693839468895213 H 0.0 **** 0.41
11286 H 19.370655192148497 5.622107597257068 0.25005694814508117 H 0.0 **** 0.41
11287 O 35.35891131355137 46.43415323231538 7.414029357486534 O 0.0 **** -0.82
11288 H 36.21483639298192 46.93226648194345 7.100700886724027 H 0.0 **** 0.41
11289 H 35.48061747654004 46.3902110489467 8.384021564676097 H 0.0 **** 0.41
11290 O 11.577004095913749 8.545059718183353 24.081018105372436 O 0.0 **** -0.82
11291 H 12.33924467539474 7.908493371226726 24.209016365210033 H 0.0 **** 0.41
11292 H 12.053887457960611 9.371256203658987 24.374488242624864 H 0.0 **** 0.41
11293 O 39.839454602872664 33.08936204635846 44.227725554502705 O 0.0 **** -0.82
11294 H 39.41697255458891 33.278513655987126 43.32725692758312 H 0.0 **** 0.41
11295 H 39.91134198490899 33.99380886465005 44.68449234495634 H 0.0 **** 0.41
11296 O 37.54215134075139 45.70388288267205 35.20612173797262 O 0.0 **** -0.82
11297 H 38.054542292129454 44.873481744522195 34.897170920905204 H 0.0 **** 0.41
11298 H 37.55375936656701 45.79462285782691 36.204524540723725 H 0.0 **** 0.41
11299 O 29.25065501290615 19.781434988962967 19.039988741360695 O 0.0 **** -0.82
11300 H 29.576656643403595 20.39313965040398 18.31667970807811 H 0.0 **** 0.41
11301 H 28.67482974323974 20.375013707770396 19.711889953474376 H 0.0 **** 0.41
11302 O 27.560527686221203 30.936126370993424 33.848785876440076 O 0.0 **** -0.82
11303 H 27.860095883561407 30.974783692708854 34.79462868093756 H 0.0 **** 0.41
11304 H 27.910653426203847 31.690805059991877 33.25971573942821 H 0.0 **** 0.41
11305 O 30.7362427916956 40.38212324194323 9.730392788357769 O 0.0 **** -0.82
11306 H 30.93518269857883 40.437740912753405 8.702612659740211 H 0.0 **** 0.41
11307 H 29.859292988676163 40.84975457941546 9.732888536094777 H 0.0 **** 0.41
11308 O 1.637956898889037 16.571570775687295 4.959445926225783 O 0.0 **** -0.82
11309 H 1.247012552931217 15.882253247152518 5.652509752048175 H 0.0 **** 0.41
11310 H 0.7889279640775797 16.64170100376709 4.432205568509488 H 0.0 **** 0.41
11311 O 15.687490271789308 11.4491076571249 24.06916517112143 O 0.0 **** -0.82
11312 H 15.243940877205588 11.8514299862358 23.277886750049895 H 0.0 **** 0.41
11313 H 15.994633313046606 10.505737735011259 23.85794769083806 H 0.0 **** 0.41
11314 O 40.602969239429214 15.980640300924748 45.12300462589815 O 0.0 **** -0.82
11315 H 40.468401583871625 16.596767273468913 44.30840894940087 H 0.0 **** 0.41
11316 H 41.319969875362666 15.337505072341102 44.736250925511655 H 0.0 **** 0.41
11317 O 12.681951035091126 2.1320629509851514 19.11680448050475 O 0.0 **** -0.82
11318 H 11.714460820612086 2.060003236230058 18.776839342661848 H 0.0 **** 0.41
11319 H 13.241392850796284 1.5409617913956553 18.553378657628794 H 0.0 **** 0.41
11320 O 1.6557923359398927 3.933858260030863 0.9184734710055196 O 0.0 **** -0.82
11321 H 1.9557547108113695 3.4306447448667994 1.7479214472798859 H 0.0 **** 0.41
11322 H 2.402917550338742 4.025700814896176 0.24271705227337037 H 0.0 **** 0.41
11323 O 47.036872738988606 9.085591203686393 23.090250672989825 O 0.0 **** -0.82
11324 H 46.92545758699896 10.010710752124968 22.655159114154486 H 0.0 **** 0.41
11325 H 46.702801383408215 9.23679502896579 24.02566851267781 H 0.0 **** 0.41
11326 O 39.50782014032548 1.694703617224577 13.450653010197442 O 0.0 **** -0.82
11327 H 39.426816390558635 2.6664192347565283 13.049792695158908 H 0.0 **** 0.41
11328 H 40.255697483794386 1.875482080378776 14.133036106810206 H 0.0 **** 0.41
11329 O 33.066844949570545 10.637517954854289 26.974129906170177 O 0.0 **** -0.82
11330 H 33.61925339008328 11.505811189724554 26.896038787074588 H 0.0 **** 0.41
11331 H 32.44308873628855 10.656870564819862 26.18373255023594 H 0.0 **** 0.41
11332 O 5.100585668090131 21.91966515559397 42.96535530424318 O 0.0 **** -0.82
11333 H 5.875971426364548 21.919178710435443 43.56795589397843 H 0.0 **** 0.41
11334 H 4.658788557305355 21.0200485212545 42.8453275084402 H 0.0 **** 0.41
11335 O 47.43083937367708 24.25251371250128 30.34048959556272 O 0.0 **** -0.82
11336 H 47.37163997326308 24.014264236005683 31.319809323054734 H 0.0 **** 0.41
11337 H 47.92032282202716 25.113761893124458 30.36791662132215 H 0.0 **** 0.41
11338 O 22.670413678686618 8.421722476835853 17.766792798544355 O 0.0 **** -0.82
11339 H 23.196944885486122 8.793911835760364 18.55621168094591 H 0.0 **** 0.41
11340 H 22.331259372833504 7.522137722440512 18.086884480074296 H 0.0 **** 0.41
11341 O 0.5426503155411879 5.425150746554235 31.960045050155088 O 0.0 **** -0.82
11342 H 0.2750711028290169 6.137151608443541 31.270334117648943 H 0.0 **** 0.41
11343 H 1.37283349061439 5.73594053208957 32.516239476145415 H 0.0 **** 0.41
11344 O 27.106563007206905 0.8037457927943166 18.273511957751023 O 0.0 **** -0.82
11345 H 27.198111178932788 -0.25660885823967305 18.092817089791428 H 0.0 **** 0.41
11346 H 27.6544458176833 1.024725055095864 19.10162833058192 H 0.0 **** 0.41
11347 O 4.419137645985636 23.845792010746976 37.31727082785581 O 0.0 **** -0.82
11348 H 4.254396238897883 22.877785020935164 37.65541353359363 H 0.0 **** 0.41
11349 H 5.076995775978823 24.237665529834914 37.92210552004459 H 0.0 **** 0.41
11350 O 10.425669678155316 13.383926422521796 47.25342873977296 O 0.0 **** -0.82
11351 H 10.86723663432727 13.190507952778262 48.16957209414233 H 0.0 **** 0.41
11352 H 10.761295432696464 14.238021195600837 46.82857014189548 H 0.0 **** 0.41
11353 O 22.462433912541712 47.016100776608 39.11886643503558 O 0.0 **** -0.82
11354 H 23.282053914407477 46.65283351346365 38.635571020617 H 0.0 **** 0.41
11355 H 22.137182791489874 47.87939257573227 38.68428403866524 H 0.0 **** 0.41
11356 O 30.398418915046385 34.22514709710854 16.822587190961816 O 0.0 **** -0.82
11357 H 31.246262545160914 34.178285812382335 17.363078858858838 H 0.0 **** 0.41
11358 H 30.506185265457013 33.447360721271544 16.156452063771845 H 0.0 **** 0.41
11359 O 18.153783388304447 28.095494221765463 15.8997493723194 O 0.0 **** -0.82
11360 H 18.762465755112387 27.33002893029294 16.082818614995645 H 0.0 **** 0.41
11361 H 18.536343794971543 28.82594745236976 16.523158996512432 H 0.0 **** 0.41
11362 O 43.309836028303664 10.172159373493725 21.322332957693632 O 0.0 **** -0.82
11363 H 43.30534026910954 9.65160095548711 20.44707796847598 H 0.0 **** 0.41
11364 H 42.30937886897034 10.407646775263192 21.47781578343536 H 0.0 **** 0.41
11365 O 21.27615529233411 49.35687575398079 37.9292903274151 O 0.0 **** -0.82
11366 H 20.446858656849543 48.81608265084933 38.20346933053274 H 0.0 **** 0.41
11367 H 20.759617700882018 50.0542276462006 37.40796769336461 H 0.0 **** 0.41
11368 O 23.436429745117074 14.05964666908241 45.636291327207275 O 0.0 **** -0.82
11369 H 22.54257884048682 14.140668483846985 46.02447021039503 H 0.0 **** 0.41
11370 H 23.744401886821795 13.190354516233207 46.002401475518205 H 0.0 **** 0.41
11371 O 1.7529530750069284 42.505626929934685 34.553263449454484 O 0.0 **** -0.82
11372 H 2.215347556411622 43.05449582617517 35.27036751835133 H 0.0 **** 0.41
11373 H 1.9273885451036534 43.043931176244506 33.70441582950118 H 0.0 **** 0.41
11374 O 7.395375059178793 11.01431540912675 31.56450926504401 O 0.0 **** -0.82
11375 H 8.160105119431512 11.630715927230403 31.774547806607192 H 0.0 **** 0.41
11376 H 7.132345284326826 11.211439488915428 30.6178072581567 H 0.0 **** 0.41
11377 O 2.5301133361942028 8.86739269638156 34.2352937878338 O 0.0 **** -0.82
11378 H 3.007782426739038 9.474565979818346 34.87605063766463 H 0.0 **** 0.41
11379 H 2.4966807497074264 9.455486224140943 33.38870955188318 H 0.0 **** 0.41
11380 O 2.921494810878393 35.05395430734266 9.3847911850994 O 0.0 **** -0.82
11381 H 3.638180746217678 35.70910130446551 9.582365357212158 H 0.0 **** 0.41
11382 H 3.141044587119147 34.22872125708275 9.87950205882035 H 0.0 **** 0.41
11383 O 10.207301301640543 34.79885695637571 12.14065991709264 O 0.0 **** -0.82
11384 H 10.895048230648266 34.064711894843 11.992881243287577 H 0.0 **** 0.41
11385 H 9.585334405945988 34.42105770068631 12.851278970621086 H 0.0 **** 0.41
11386 O 47.768422037131515 10.721851771282942 29.58208304471781 O 0.0 **** -0.82
11387 H 47.35857858243755 10.714688779648156 30.493620591539887 H 0.0 **** 0.41
11388 H 48.738176262542595 10.54710062678258 29.843990605118098 H 0.0 **** 0.41
11389 O 45.93529288118517 42.1955431827559 36.43740640251946 O 0.0 **** -0.82
11390 H 46.5735825753087 42.31546771305653 37.24017382799726 H 0.0 **** 0.41
11391 H 46.492330800035596 42.436240465236516 35.59554447411077 H 0.0 **** 0.41
11392 O 47.995193212395485 12.985774699569477 4.35128894753052 O 0.0 **** -0.82
11393 H 49.00165342077125 12.775086418999141 4.250440808905459 H 0.0 **** 0.41
11394 H 47.5708607885573 12.226941402012008 4.901157512176262 H 0.0 **** 0.41
11395 O 28.06694879087828 20.809945387952396 21.49235316881523 O 0.0 **** -0.82
11396 H 28.94777473423335 20.403522728291904 21.825366775104953 H 0.0 **** 0.41
11397 H 27.83755339741709 21.444627421150546 22.274358013255835 H 0.0 **** 0.41
11398 O 12.938733809808198 18.221700226610334 8.689737904173144 O 0.0 **** -0.82
11399 H 13.135299375971137 18.189944402277895 9.70274470706653 H 0.0 **** 0.41
11400 H 12.229874959219778 18.982579528763434 8.564159620117987 H 0.0 **** 0.41
11401 O 12.782899225290208 14.217578521312555 30.993114945332454 O 0.0 **** -0.82
11402 H 13.720402071065308 13.820480717024463 30.851697069043322 H 0.0 **** 0.41
11403 H 12.388263274610665 14.016523788425141 30.085340023231602 H 0.0 **** 0.41
11404 O 11.745162454689023 36.82376884770628 0.7988969823328418 O 0.0 **** -0.82
11405 H 11.937291720386057 37.723242581976315 1.226063779630681 H 0.0 **** 0.41
11406 H 10.970175419197673 36.95579853330082 0.17359523895665216 H 0.0 **** 0.41
11407 O 38.24255805438808 20.30161556074546 9.669802484555412 O 0.0 **** -0.82
11408 H 38.328847163102566 19.509687814330434 10.349823811598753 H 0.0 **** 0.41
11409 H 37.28112583625767 20.728920115230977 9.627606192736735 H 0.0 **** 0.41
11410 O 39.61489272700393 24.973489727496563 17.106094760030032 O 0.0 **** -0.82
11411 H 40.24429386030117 24.37601221872665 17.715266885368536 H 0.0 **** 0.41
11412 H 39.018778392375346 25.473020863664413 17.78713123798844 H 0.0 **** 0.41
11413 O 7.138362245619415 12.140305106908741 20.646089450291093 O 0.0 **** -0.82
11414 H 8.086353863800577 11.783680663069077 20.856322733508183 H 0.0 **** 0.41
11415 H 6.746620608476901 11.232673368098745 20.377183372026803 H 0.0 **** 0.41
11416 O 41.87473410541166 15.72352040358804 19.44683312688828 O 0.0 **** -0.82
11417 H 41.880460632394744 16.301975195398597 20.284286131800968 H 0.0 **** 0.41
11418 H 41.99240833339812 14.699792888355901 19.483206932213047 H 0.0 **** 0.41
11419 O 14.839983831763881 21.69681256611841 24.31417061121977 O 0.0 **** -0.82
11420 H 15.269431077799355 21.762048191793905 25.26532199775715 H 0.0 **** 0.41
11421 H 14.831036466387662 20.673780958464892 24.206605356164197 H 0.0 **** 0.41
11422 O 27.71221255372703 46.21704540091289 38.69271769225705 O 0.0 **** -0.82
11423 H 27.451941150679296 46.520988480245734 37.74567697657602 H 0.0 **** 0.41
11424 H 28.579004056156176 45.67971168359476 38.54373810708218 H 0.0 **** 0.41
11425 O 10.969996042860188 36.95500614930141 5.512473641897287 O 0.0 **** -0.82
11426 H 11.46165479584728 36.39128530916194 4.821023314843373 H 0.0 **** 0.41
11427 H 10.038515876619144 36.98375774988999 5.1704238265543765 H 0.0 **** 0.41
11428 O 19.920022374319394 39.654723276870286 40.86955532474972 O 0.0 **** -0.82
11429 H 20.907117234356246 39.81932605646696 40.622167098622405 H 0.0 **** 0.41
11430 H 19.59394425858212 38.86016550605544 40.30782460365776 H 0.0 **** 0.41
11431 O 28.878552481753246 12.83236535063726 15.159463580533094 O 0.0 **** -0.82
11432 H 29.692827480264757 13.401854564511545 14.978180457210538 H 0.0 **** 0.41
11433 H 28.959495329509352 11.946188867254705 14.6224731344922 H 0.0 **** 0.41
11434 O 4.870699972398508 10.77435444470242 8.771875059561838 O 0.0 **** -0.82
11435 H 4.943008922017484 11.73165550060528 9.171257712335125 H 0.0 **** 0.41
11436 H 3.8796497410370216 10.517808961119545 8.857856754840384 H 0.0 **** 0.41
11437 O 16.009721837638335 44.77297751625584 28.781624609553326 O 0.0 **** -0.82
11438 H 15.08855951070331 44.26776544373218 28.606826976610122 H 0.0 **** 0.41
11439 H 16.403902763304238 44.16652142608147 29.534284616372105 H 0.0 **** 0.41
11440 O 45.69277626986145 1.1967466805479035 34.5876676423431 O 0.0 **** -0.82
11441 H 45.38629357247875 0.2964966953859758 34.21865913646381 H 0.0 **** 0.41
11442 H 45.76727397910565 1.0952897873238783 35.64210264705469 H 0.0 **** 0.41
11443 O 12.085679966709822 8.51717595078658 47.42857825097573 O 0.0 **** -0.82
11444 H 11.918454398017621 7.557126526139598 47.79537819999433 H 0.0 **** 0.41
11445 H 11.320444747327162 9.105261740813397 47.733778129613036 H 0.0 **** 0.41
11446 O 41.13605126058628 34.41337600700404 39.454982470529636 O 0.0 **** -0.82
11447 H 42.09500194728061 34.13794593023489 39.68225689091199 H 0.0 **** 0.41
11448 H 40.61137919995717 33.69715434393826 39.90544044188169 H 0.0 **** 0.41
11449 O 11.30967124318903 43.60353647283464 29.902639825499076 O 0.0 **** -0.82
11450 H 11.406458238660733 44.54195202954186 30.274359564087508 H 0.0 **** 0.41
11451 H 10.507120999985618 43.88083829760725 29.349992994726612 H 0.0 **** 0.41
11452 O 31.76412797314009 35.969770933709185 42.83034819590098 O 0.0 **** -0.82
11453 H 31.195635951096524 36.688816414712235 43.16904202054392 H 0.0 **** 0.41
11454 H 32.69252516476405 36.28205238344268 42.93481785700573 H 0.0 **** 0.41
11455 O 11.050850057231727 25.60088289773146 42.78290910034809 O 0.0 **** -0.82
11456 H 11.315033313847266 24.66710880288663 43.215276718125004 H 0.0 **** 0.41
11457 H 10.378002440734306 25.94720296517798 43.45227309628849 H 0.0 **** 0.41
11458 O 16.529013799997117 10.37024888780249 30.320959286854247 O 0.0 **** -0.82
11459 H 15.601429652383478 10.520731422917805 30.40574580601681 H 0.0 **** 0.41
11460 H 16.655952177110894 9.543393101408142 30.970929897388956 H 0.0 **** 0.41
11461 O 0.27739544442969766 25.081385632686445 47.288092866926384 O 0.0 **** -0.82
11462 H -0.5004817941296054 24.438915672192802 47.18477535963877 H 0.0 **** 0.41
11463 H -0.1767329192137126 25.961443502344665 47.524299795691846 H 0.0 **** 0.41
11464 O 37.543616962013694 20.72592259625281 40.20174536605004 O 0.0 **** -0.82
11465 H 38.283385780704094 21.44516555518209 40.23254889771188 H 0.0 **** 0.41
11466 H 36.688106352753174 21.306488301335374 40.34775039470666 H 0.0 **** 0.41
11467 O 8.163664424225002 17.49125577660083 34.40533373740691 O 0.0 **** -0.82
11468 H 7.206633040628374 17.660294024741436 34.11171505676221 H 0.0 **** 0.41
11469 H 8.759920264274866 17.94630169486387 33.71614232577723 H 0.0 **** 0.41
11470 O 7.920331236993866 28.331797519597327 41.80237775124277 O 0.0 **** -0.82
11471 H 8.194186103609335 28.816427378049006 40.930028067304356 H 0.0 **** 0.41
11472 H 7.651747550556508 27.40961804003952 41.65125688678762 H 0.0 **** 0.41
11473 O 4.647348834228772 18.67707584664292 5.908149397709565 O 0.0 **** -0.82
11474 H 3.8796483402290605 19.17551196365912 6.424186936435042 H 0.0 **** 0.41
11475 H 4.302738968759556 17.696384584515826 5.944958936666495 H 0.0 **** 0.41
11476 O 7.28697077158651 45.825316106072655 1.219968066175233 O 0.0 **** -0.82
11477 H 7.83387984717853 46.522290692180505 0.7215592317516503 H 0.0 **** 0.41
11478 H 7.304943194196042 45.01752791578473 0.6186667341540868 H 0.0 **** 0.41
11479 O 5.091448866978317 9.767247462348429 2.785745540953286 O 0.0 **** -0.82
11480 H 5.857980600455606 9.879863649623292 3.408488619167258 H 0.0 **** 0.41
11481 H 4.880531243001815 10.702610856473559 2.4031490144504275 H 0.0 **** 0.41
11482 O 8.34300377461604 18.692241828337313 13.571552316904068 O 0.0 **** -0.82
11483 H 9.036209143395851 18.272331501295877 14.189508798723253 H 0.0 **** 0.41
11484 H 8.421389351043967 19.645231806904693 13.759760099641923 H 0.0 **** 0.41
11485 O 49.79201994886921 29.946238578818452 2.6795634496291854 O 0.0 **** -0.82
11486 H 49.53943347535388 29.018374796400565 2.3183558769189077 H 0.0 **** 0.41
11487 H 49.92089530228857 30.583809983541954 1.9310193025564786 H 0.0 **** 0.41
11488 O 45.84076161813397 20.400617981298087 29.066584746999613 O 0.0 **** -0.82
11489 H 46.68897800590567 20.52603923984525 28.576854341867854 H 0.0 **** 0.41
11490 H 45.7496712288872 19.432051046340376 28.737508363724714 H 0.0 **** 0.41
11491 O 6.817635865070112 7.174457555044619 43.671054087335236 O 0.0 **** -0.82
11492 H 6.417780109901067 8.074990022807448 43.43919851823122 H 0.0 **** 0.41
11493 H 5.938197892662108 6.7030300489338215 43.93153617135924 H 0.0 **** 0.41
11494 O 43.05236438301889 47.42776126455997 37.63167650334597 O 0.0 **** -0.82
11495 H 42.380016080231215 46.68553983347766 37.436735233924274 H 0.0 **** 0.41
11496 H 42.39372290688702 48.23766226759825 37.749753394404465 H 0.0 **** 0.41
11497 O 6.048505981549958 31.874521575802234 7.111068803925704 O 0.0 **** -0.82
11498 H 5.79585422564741 30.892742647603434 7.081175906423198 H 0.0 **** 0.41
11499 H 5.121366183504541 32.36560822120332 7.1409936730381816 H 0.0 **** 0.41
11500 O 9.51252413217199 19.814695405833007 41.9224593072568 O 0.0 **** -0.82
11501 H 9.00803644842459 20.029092264015574 41.00443161712402 H 0.0 **** 0.41
11502 H 10.402936421382506 20.31042703588387 41.98245465234232 H 0.0 **** 0.41
11503 O 36.06568304992027 18.562768489088906 21.840732966508575 O 0.0 **** -0.82
11504 H 35.837304111491356 18.610661632382897 20.85690942808837 H 0.0 **** 0.41
11505 H 37.006636148799316 18.21135157609452 21.886083191921163 H 0.0 **** 0.41
11506 O 19.953900369401218 14.003881277353614 13.476837622549395 O 0.0 **** -0.82
11507 H 19.28865685898913 13.288279177824355 13.708924477576883 H 0.0 **** 0.41
11508 H 20.677958258184237 13.586673396342144 12.859760792332088 H 0.0 **** 0.41
11509 O 17.29072095314212 44.97304528622309 44.85282026806188 O 0.0 **** -0.82
11510 H 17.220658088558505 44.988990230526824 45.877827354086506 H 0.0 **** 0.41
11511 H 16.386388169119808 44.46017160830611 44.60224539555049 H 0.0 **** 0.41
11512 O 33.430916666108274 12.613117837604278 29.560404476727676 O 0.0 **** -0.82
11513 H 32.540080691644775 12.80891483621825 29.93629897211024 H 0.0 **** 0.41
11514 H 33.42549690094016 11.615675873252322 29.49787854860938 H 0.0 **** 0.41
11515 O 19.964255323282334 29.721658793279243 33.60791111114165 O 0.0 **** -0.82
11516 H 20.76844425506653 29.136846779674745 33.664841482499185 H 0.0 **** 0.41
11517 H 19.427958225663655 29.513057775064922 34.416480756211726 H 0.0 **** 0.41
11518 O 1.9136446530547815 0.9376491650643217 34.673271519144784 O 0.0 **** -0.82
11519 H 2.5958335073340635 0.9974412281108016 33.96129734657115 H 0.0 **** 0.41
11520 H 1.5906936261872247 1.8922842206135542 34.84723431304327 H 0.0 **** 0.41
11521 O 23.50352631391057 33.73042521615747 9.357626726068718 O 0.0 **** -0.82
11522 H 24.052253147150356 34.45273964852468 9.743062195470792 H 0.0 **** 0.41
11523 H 24.15344962122107 33.14673147949134 8.817242003002415 H 0.0 **** 0.41
11524 O 32.40008594385321 20.823902025351693 16.096477600779536 O 0.0 **** -0.82
11525 H 32.7857008084971 21.685865042802266 15.699715155965938 H 0.0 **** 0.41
11526 H 32.871141772992885 20.067796785734757 15.649780637641937 H 0.0 **** 0.41
11527 O 21.86935601122125 12.835376478569152 12.089645469114371 O 0.0 **** -0.82
11528 H 22.276624921071097 12.657779589800963 13.037460854559066 H 0.0 **** 0.41
11529 H 22.369161746969183 12.183661086910075 11.520539328752273 H 0.0 **** 0.41
11530 O 35.018823564398936 10.75947058002189 48.52735104903788 O 0.0 **** -0.82
11531 H 35.89545194367933 10.266567573019215 48.792651903258076 H 0.0 **** 0.41
11532 H 35.269197349800294 11.49263644384219 47.87642284671497 H 0.0 **** 0.41
11533 O 7.905674461447106 28.956569800876558 4.224155845162663 O 0.0 **** -0.82
11534 H 8.087732693011098 28.244651474619396 3.545282199182033 H 0.0 **** 0.41
11535 H 8.012457867726212 29.820894293478673 3.6452965332016163 H 0.0 **** 0.41
11536 O 18.822982506075704 41.42150543812203 43.94338340640091 O 0.0 **** -0.82
11537 H 19.18945196947851 41.32851067529655 44.89316555561174 H 0.0 **** 0.41
11538 H 19.000191491875313 42.37004625271152 43.528973067276894 H 0.0 **** 0.41
11539 O 0.5051123805653375 40.57901243125408 42.16971850678118 O 0.0 **** -0.82
11540 H 1.2181494788001987 40.12234896246603 41.53908056920726 H 0.0 **** 0.41
11541 H -0.3018862828269633 40.13234614099907 41.86099087772578 H 0.0 **** 0.41
11542 O 28.78195006179752 10.284109846681012 46.367253466245174 O 0.0 **** -0.82
11543 H 28.678058922905596 9.632937668200796 45.57190036907306 H 0.0 **** 0.41
11544 H 28.34126431050104 9.816956658850586 47.17078677027665 H 0.0 **** 0.41
11545 O 36.822658066254334 1.8216202955852125 2.758685672689736 O 0.0 **** -0.82
11546 H 37.636499787624764 1.2780378233085372 2.4035041545190796 H 0.0 **** 0.41
11547 H 36.84036115948852 2.700452246714285 2.2300288746365364 H 0.0 **** 0.41
11548 O 17.866394362379523 43.87624662045636 21.307770029958014 O 0.0 **** -0.82
11549 H 16.95393638618256 43.57405165739156 20.980484832256383 H 0.0 **** 0.41
11550 H 18.58051301403892 43.12938056420302 21.064276706433308 H 0.0 **** 0.41
11551 O 1.702965019510252 10.752482191411245 36.33837506188836 O 0.0 **** -0.82
11552 H 2.648140246797219 10.369532014584248 36.35370726074757 H 0.0 **** 0.41
11553 H 1.2385929213821214 10.266562354224709 37.09111354792705 H 0.0 **** 0.41
11554 O 40.91691243478419 13.104508386951437 12.181796379578858 O 0.0 **** -0.82
11555 H 41.610182009907035 13.254870194564475 11.437529969002945 H 0.0 **** 0.41
11556 H 40.046632268118834 12.751889011309828 11.813622455900807 H 0.0 **** 0.41
11557 O 21.967574775906897 11.111301776467357 9.626032301741304 O 0.0 **** -0.82
11558 H 21.260510690208637 11.18970684715831 8.844431832853097 H 0.0 **** 0.41
11559 H 22.845928406729534 11.216739709369534 9.24527146914154 H 0.0 **** 0.41
11560 O 36.24453431047283 19.57548842437049 42.794890966866916 O 0.0 **** -0.82
11561 H 37.20705166830699 19.402776161875494 42.80699645948795 H 0.0 **** 0.41
11562 H 35.93974724528869 19.435035879328524 41.82290643614562 H 0.0 **** 0.41
11563 O 40.88316853486318 8.214080998400835 14.735354577688552 O 0.0 **** -0.82
11564 H 40.688399707062544 7.254960950729921 15.140238484023792 H 0.0 **** 0.41
11565 H 40.15495692925464 8.393985637678828 14.063230756774287 H 0.0 **** 0.41
11566 O 32.75498201799948 11.85381276959463 44.63857897744101 O 0.0 **** -0.82
11567 H 33.48292647326583 11.405649885627748 44.1370176125207 H 0.0 **** 0.41
11568 H 32.65041222647859 11.422932662968805 45.555207053409525 H 0.0 **** 0.41
11569 O 21.059660323304826 18.470794455409568 13.7856426822726 O 0.0 **** -0.82
11570 H 21.85760281119427 18.84619646805039 13.35242142679322 H 0.0 **** 0.41
11571 H 20.760422987634783 17.803216196929906 13.07651662683067 H 0.0 **** 0.41
11572 O 48.958638707424974 32.16218481213379 41.24020159117552 O 0.0 **** -0.82
11573 H 49.9480393570267 32.40797606479107 41.44179414104859 H 0.0 **** 0.41
11574 H 48.48756862011275 32.31673275879769 42.11048185736831 H 0.0 **** 0.41
11575 O 44.47067623479706 18.953747659057175 47.479688906789285 O 0.0 **** -0.82
11576 H 44.05087447396329 18.15505217200449 47.91485075374544 H 0.0 **** 0.41
11577 H 45.45318617765799 18.799793364958 47.339674642546875 H 0.0 **** 0.41
11578 O 40.0838004350451 43.95190913282289 7.110261796783762 O 0.0 **** -0.82
11579 H 39.28321683721207 43.46995052676517 7.542401578245047 H 0.0 **** 0.41
11580 H 39.75775921908214 44.613399118600434 6.429771410030683 H 0.0 **** 0.41
11581 O 43.80270309494789 21.83229070419493 12.959007073349511 O 0.0 **** -0.82
11582 H 44.1110637485695 21.714353843059378 11.970461312386597 H 0.0 **** 0.41
11583 H 42.90890147127354 21.44688716737263 12.802877471144186 H 0.0 **** 0.41
11584 O 24.031446471294323 5.3884393362345975 13.615227117935973 O 0.0 **** -0.82
11585 H 24.526235526920406 4.470353907755488 13.56283639742378 H 0.0 **** 0.41
11586 H 23.28580704104552 5.369906279166742 12.955872147980386 H 0.0 **** 0.41
11587 O 49.12805930322201 31.155657748963566 7.099157085577247 O 0.0 **** -0.82
11588 H 49.77016069568936 31.811127595234836 7.535776740458246 H 0.0 **** 0.41
11589 H 49.58915159956601 30.671318737647617 6.304476361850547 H 0.0 **** 0.41
11590 O 37.764518721329544 26.262608985446906 44.16851351717305 O 0.0 **** -0.82
11591 H 36.940114925616015 25.615701421608644 44.04383415214402 H 0.0 **** 0.41
11592 H 38.639742105132605 25.67390637045561 44.1161518558043 H 0.0 **** 0.41
11593 O 18.965086520911804 37.55870702686092 39.49311580358856 O 0.0 **** -0.82
11594 H 18.503311644088644 36.68935319426238 39.3540807547078 H 0.0 **** 0.41
11595 H 18.827530878993212 38.11415487610056 38.666846423554375 H 0.0 **** 0.41
11596 O 36.06097999745754 13.781736045463688 36.14261273829655 O 0.0 **** -0.82
11597 H 35.352425523024 13.08496979708891 36.13946266147993 H 0.0 **** 0.41
11598 H 36.63357984395532 13.554273372435397 35.334818924664695 H 0.0 **** 0.41
11599 O 11.695760472639856 14.322983978572234 43.71029540228627 O 0.0 **** -0.82
11600 H 10.83093790137354 14.510184485542299 43.22539600277 H 0.0 **** 0.41
11601 H 11.604207234661233 13.531998047940508 44.37469961896415 H 0.0 **** 0.41
11602 O 22.964200680142344 30.668029142398638 41.35231308976934 O 0.0 **** -0.82
11603 H 23.01795169736453 30.777837305583688 40.331262457158815 H 0.0 **** 0.41
11604 H 23.565376231927107 29.886112954824654 41.42905576219963 H 0.0 **** 0.41
11605 O 24.347724280016514 3.883305646781359 42.67282080492489 O 0.0 **** -0.82
11606 H 24.754401523379652 3.620467066176076 43.54661001282102 H 0.0 **** 0.41
11607 H 25.082681326611606 3.755136830601444 42.015490704911834 H 0.0 **** 0.41
11608 O 4.938411359444745 32.96372966485024 21.328138754991976 O 0.0 **** -0.82
11609 H 4.711351500976397 33.709627277793494 20.689960963687643 H 0.0 **** 0.41
11610 H 4.064206547172089 32.51521339064269 21.473825735846674 H 0.0 **** 0.41
11611 O 4.242915349894601 20.867317576757973 34.51100095779742 O 0.0 **** -0.82
11612 H 3.341695997036054 20.840593983798907 34.07648165994564 H 0.0 **** 0.41
11613 H 4.585200531881552 21.779122700759537 34.267628331183715 H 0.0 **** 0.41
11614 O 13.914176819071614 6.602845792023241 14.919783534760695 O 0.0 **** -0.82
11615 H 13.641330846151192 6.721990174041645 13.915356715630235 H 0.0 **** 0.41
11616 H 13.960591231076705 5.584606670003658 14.996424231464788 H 0.0 **** 0.41
11617 O 27.69530184163932 40.181891567917276 40.15053971913498 O 0.0 **** -0.82
11618 H 27.11467601887631 39.53505532432205 40.613172174708026 H 0.0 **** 0.41
11619 H 28.441890353348015 39.639246153698096 39.78543502974246 H 0.0 **** 0.41
11620 O 22.487125396215085 35.04546871016903 30.730483635041477 O 0.0 **** -0.82
11621 H 22.6284191856136 34.4713500317792 29.945326215967533 H 0.0 **** 0.41
11622 H 21.7735788921931 35.74982892781684 30.48447896561357 H 0.0 **** 0.41
11623 O 12.832337227308985 10.87137041897006 24.794232107681623 O 0.0 **** -0.82
11624 H 12.17785097886673 11.656981971803717 24.773733234819645 H 0.0 **** 0.41
11625 H 13.775982305188917 11.25757327970804 24.592449090004195 H 0.0 **** 0.41
11626 O 27.1468949036429 16.811001149744968 16.84544323860645 O 0.0 **** -0.82
11627 H 27.094009246988236 17.7987691519374 17.005344045185225 H 0.0 **** 0.41
11628 H 27.924129633838163 16.635239672420255 16.21318330622627 H 0.0 **** 0.41
11629 O 40.44362854793203 40.16695083961061 18.250544293422845 O 0.0 **** -0.82
11630 H 40.99544367247155 41.01462630586831 18.519660817117195 H 0.0 **** 0.41
11631 H 40.42179679224996 40.217544873448645 17.22738481819501 H 0.0 **** 0.41
11632 O 30.183850425703 8.823931452378552 1.8099352801789623 O 0.0 **** -0.82
11633 H 30.152806905600045 8.973146435603232 0.8301732605252429 H 0.0 **** 0.41
11634 H 30.416314844196208 7.848411261099277 1.9495993386101687 H 0.0 **** 0.41
11635 O 20.834884257097173 15.70581885603196 34.297850573907795 O 0.0 **** -0.82
11636 H 20.939032992553802 16.477899007524126 33.64602004163615 H 0.0 **** 0.41
11637 H 19.862561607425754 15.828972763767243 34.59399512615434 H 0.0 **** 0.41
11638 O 19.980205358312602 8.871003309341374 11.238241700039183 O 0.0 **** -0.82
11639 H 20.165709098314924 9.207836369232087 10.318714245223546 H 0.0 **** 0.41
11640 H 18.988668955860476 8.741905974062018 11.18981299703971 H 0.0 **** 0.41
11641 O 19.328434770329523 49.70326114234907 28.691203456441325 O 0.0 **** -0.82
11642 H 19.783608392101954 48.80211522949811 28.568783792632175 H 0.0 **** 0.41
11643 H 19.65503305488616 50.29567695784896 27.9156146753168 H 0.0 **** 0.41
11644 O 1.2328664586942182 6.200746259032769 2.597902278064545 O 0.0 **** -0.82
11645 H 1.3293561692505662 5.419020082789431 2.002394041705898 H 0.0 **** 0.41
11646 H 1.051213337221533 5.880065584306424 3.527683506274144 H 0.0 **** 0.41
11647 O 10.795514441904285 29.088881612346395 14.251768788977714 O 0.0 **** -0.82
11648 H 10.821217506758025 30.067352112070235 14.484327795394648 H 0.0 **** 0.41
11649 H 11.502837319648403 29.01571833306209 13.4945568597645 H 0.0 **** 0.41
11650 O 33.012256660217304 48.256591870854265 29.80481326046316 O 0.0 **** -0.82
11651 H 33.68273578583081 48.51483316463143 29.111076508286356 H 0.0 **** 0.41
11652 H 32.12433883764772 48.46569466193056 29.301232995445687 H 0.0 **** 0.41
11653 O 26.122848079173693 23.90653912344195 35.013105325317994 O 0.0 **** -0.82
11654 H 26.12949858366912 23.68006269631533 35.99356182969274 H 0.0 **** 0.41
11655 H 27.059379333059795 24.101243649857953 34.73730908712085 H 0.0 **** 0.41
11656 O 35.77772446260761 7.4233282855769485 30.036216139984557 O 0.0 **** -0.82
11657 H 36.73409891218034 7.832337052857367 30.140439605095573 H 0.0 **** 0.41
11658 H 35.239945964438526 8.252522204196417 29.692772592719482 H 0.0 **** 0.41
11659 O 12.613574322955678 9.630617255674562 10.486672042447807 O 0.0 **** -0.82
11660 H 11.685304440822728 9.268003490949999 10.225874042247668 H 0.0 **** 0.41
11661 H 12.668266516788453 10.413315516691878 9.817647495494597 H 0.0 **** 0.41
11662 O 36.3626821949056 16.46898329277474 18.66588400169225 O 0.0 **** -0.82
11663 H 37.114794033123076 16.108877990977856 19.159706216071413 H 0.0 **** 0.41
11664 H 36.705035158268316 16.955405731554638 17.83619366075942 H 0.0 **** 0.41
11665 O 13.987137939524025 16.537381029274403 15.861206347039822 O 0.0 **** -0.82
11666 H 14.000871787233592 15.637428650994035 16.288649278593923 H 0.0 **** 0.41
11667 H 13.18157011217366 16.961574439504794 16.379442500603485 H 0.0 **** 0.41
11668 O 34.34758039962323 48.80159533828335 27.387682300298735 O 0.0 **** -0.82
11669 H 35.21283852973488 49.340335336718 27.228985515194786 H 0.0 **** 0.41
11670 H 34.67510579632926 47.91158135609256 26.964290711391108 H 0.0 **** 0.41
11671 O 19.98055979494913 32.63955833931414 9.249614249681542 O 0.0 **** -0.82
11672 H 20.74199410771057 32.15856920828233 9.719734035739563 H 0.0 **** 0.41
11673 H 20.333634609579182 32.91137835645608 8.300172318312974 H 0.0 **** 0.41
11674 O 7.499860561555195 5.65375190659848 40.32235997981361 O 0.0 **** -0.82
11675 H 6.652163928469179 6.044036047468268 39.912169571664194 H 0.0 **** 0.41
11676 H 8.23460877794598 6.254422027804104 39.9779275216227 H 0.0 **** 0.41
11677 O 40.68836111980965 9.811699321358262 18.724696997663585 O 0.0 **** -0.82
11678 H 40.80719636517583 8.825009951783898 18.377373946042777 H 0.0 **** 0.41
11679 H 40.59890750214624 10.229984749987434 17.792969232574837 H 0.0 **** 0.41
11680 O 14.461402487516867 5.591237725740555 7.7434039157990675 O 0.0 **** -0.82
11681 H 14.141075913423146 4.679344384710149 7.4406723479790875 H 0.0 **** 0.41
11682 H 15.473195179815091 5.46003946843647 8.033339467748242 H 0.0 **** 0.41
11683 O 34.887229269532725 2.843914121443998 13.520785918818731 O 0.0 **** -0.82
11684 H 34.01838378754424 2.548293491701118 13.156411158954711 H 0.0 **** 0.41
11685 H 35.59976107155231 2.358501757563796 12.931548424748371 H 0.0 **** 0.41
11686 O 12.82453315184885 11.550019080847441 38.389509052069165 O 0.0 **** -0.82
11687 H 13.773198224630514 11.628088390767559 38.658826811564936 H 0.0 **** 0.41
11688 H 12.583796289984697 12.13876852027751 37.58667065591452 H 0.0 **** 0.41
11689 O 17.51629787005551 39.93348560356848 47.945809590303156 O 0.0 **** -0.82
11690 H 17.621067005886957 40.70970842009162 48.570924085416436 H 0.0 **** 0.41
11691 H 17.009000474331856 40.2777125321005 47.175830424712416 H 0.0 **** 0.41
11692 O 0.4355056198172568 5.657761328764076 9.201651222568842 O 0.0 **** -0.82
11693 H -0.19439983000089 6.266892103917217 9.785960406453668 H 0.0 **** 0.41
11694 H 1.1443364942696508 5.362237614269704 9.767615454735264 H 0.0 **** 0.41
11695 O 23.455747496293036 47.76397090934668 31.835128058531506 O 0.0 **** -0.82
11696 H 23.11805601329574 48.74341901119358 31.72233997441259 H 0.0 **** 0.41
11697 H 24.0679661238327 47.631963595931055 31.074823547561707 H 0.0 **** 0.41
11698 O 44.860601176373216 11.467643022689607 1.5087072775319832 O 0.0 **** -0.82
11699 H 45.77474795659471 11.921552977790618 1.3872258919833982 H 0.0 **** 0.41
11700 H 44.31836869738986 12.287424404785927 1.4672098795817705 H 0.0 **** 0.41
11701 O 1.0734518867409724 25.19477059595473 21.735919981419656 O 0.0 **** -0.82
11702 H 1.8615998480819043 25.52806918009553 21.277074914477083 H 0.0 **** 0.41
11703 H 1.3493478194709185 25.02061428254961 22.71065012879338 H 0.0 **** 0.41
11704 O 42.41607363699831 48.86068239331143 47.667841775267576 O 0.0 **** -0.82
11705 H 42.97100116226033 49.59202281071211 47.22113220474084 H 0.0 **** 0.41
11706 H 43.10341653453798 48.22353878760515 48.1003209943834 H 0.0 **** 0.41
11707 O 49.16586216796956 31.555725585761444 0.7542895576643502 O 0.0 **** -0.82
11708 H 48.75476439532036 32.36195821310629 1.1954462713960083 H 0.0 **** 0.41
11709 H 48.360946980578 31.15366883717182 0.28555146461973635 H 0.0 **** 0.41
11710 O 20.095116210930456 23.944538028956842 27.956457479038765 O 0.0 **** -0.82
11711 H 19.251937786867046 23.85876885422255 27.42283538593964 H 0.0 **** 0.41
11712 H 20.827088384415163 24.3444350414286 27.34628509813215 H 0.0 **** 0.41
11713 O 13.050553688249906 49.1184482075332 4.639506578674844 O 0.0 **** -0.82
11714 H 13.411736707066211 48.95855453213869 5.606174289530066 H 0.0 **** 0.41
11715 H 12.332286740127763 48.3696526496507 4.53332046943345 H 0.0 **** 0.41
11716 O 23.018761012321335 24.86536148206124 8.36925909605143 O 0.0 **** -0.82
11717 H 22.483424807746008 24.787842124785517 9.21761971198957 H 0.0 **** 0.41
11718 H 22.55905176302694 25.57935131872952 7.9274501534979915 H 0.0 **** 0.41
11719 O 7.624709750684062 17.891465611501076 29.28956730507914 O 0.0 **** -0.82
11720 H 8.078662037099079 17.547491376640505 28.405833067689603 H 0.0 **** 0.41
11721 H 7.431308518786047 17.073693823073288 29.829364984183574 H 0.0 **** 0.41
11722 O 11.62914894021899 34.17962377267071 36.17909951575459 O 0.0 **** -0.82
11723 H 12.063350663637225 33.947048419195276 37.114466222158654 H 0.0 **** 0.41
11724 H 12.353978636053375 33.911514694214205 35.487966990453266 H 0.0 **** 0.41
11725 O 4.877723420768741 14.037458894323843 45.2461310557635 O 0.0 **** -0.82
11726 H 5.629944877878654 14.508730293385229 45.62804468893219 H 0.0 **** 0.41
11727 H 5.201071449835597 13.720801343370363 44.37554293415303 H 0.0 **** 0.41
11728 O 14.549462580466525 16.48373920398059 20.56582633970661 O 0.0 **** -0.82
11729 H 15.447520851168058 16.960640676271453 20.60638288927414 H 0.0 **** 0.41
11730 H 13.832674680897213 17.134273144273465 20.294114661970774 H 0.0 **** 0.41
11731 O 46.56718060529971 25.223509108548797 22.92493635047299 O 0.0 **** -0.82
11732 H 46.87659032943442 26.092685813880504 22.479425007229818 H 0.0 **** 0.41
11733 H 46.60655367144027 24.630145095746972 22.074687895416357 H 0.0 **** 0.41
11734 O 20.83805190276237 37.63061608365252 49.25512844265183 O 0.0 **** -0.82
11735 H 20.326869035095037 38.25871479009022 49.873468740256115 H 0.0 **** 0.41
11736 H 21.735024870637503 38.07319959171206 49.098027329429065 H 0.0 **** 0.41
11737 O 10.700474247493375 2.5634022762224835 12.201100975622282 O 0.0 **** -0.82
11738 H 9.782617495421183 2.7373093233769517 12.636846182509332 H 0.0 **** 0.41
11739 H 10.546978685880633 2.3912854735693716 11.190623967542068 H 0.0 **** 0.41
11740 O 20.282471966001705 38.13160604852306 19.695490592650547 O 0.0 **** -0.82
11741 H 19.862605385294533 38.97439923834723 19.329878238300353 H 0.0 **** 0.41
11742 H 19.58415431871165 37.724567906562115 20.31459589488278 H 0.0 **** 0.41
11743 O 27.18319908478857 35.56366312026981 30.473993739742163 O 0.0 **** -0.82
11744 H 28.01556668782087 35.46728203272117 31.072676545145207 H 0.0 **** 0.41
11745 H 26.601724663703095 36.16873099475742 31.062134342166786 H 0.0 **** 0.41
11746 O 3.7044615408939876 13.598794658822007 33.41756013178636 O 0.0 **** -0.82
11747 H 3.149516424229617 14.134862300249774 32.76150547061331 H 0.0 **** 0.41
11748 H 2.9805986748080713 13.257909240089539 34.09836408399895 H 0.0 **** 0.41
11749 O 6.510390525488655 42.461633487499206 15.037449553061995 O 0.0 **** -0.82
11750 H 6.140023922422571 41.872101305694926 14.297007158097125 H 0.0 **** 0.41
11751 H 6.866713701530339 41.8038126513812 15.715491040299797 H 0.0 **** 0.41
11752 O 36.29764222981267 10.08810125767061 21.130557128945995 O 0.0 **** -0.82
11753 H 36.912380867142176 9.53816535013595 20.562972527806537 H 0.0 **** 0.41
11754 H 35.50208933449494 10.318465812680538 20.502067564883227 H 0.0 **** 0.41
11755 O 40.61620696628111 36.22143300438492 3.0767563959032245 O 0.0 **** -0.82
11756 H 41.553995073985476 36.463055361521945 2.6566513406080503 H 0.0 **** 0.41
11757 H 40.006088938924265 37.009352197353806 2.7983103852643936 H 0.0 **** 0.41
11758 O 4.339420089134593 33.55716630899644 30.700463209054764 O 0.0 **** -0.82
11759 H 4.128933378982552 33.87670932807781 29.74933796593772 H 0.0 **** 0.41
11760 H 5.257010477820381 33.834207611366494 30.939452602112787 H 0.0 **** 0.41
11761 O 32.46294856404633 34.55908976160246 13.642920270018985 O 0.0 **** -0.82
11762 H 33.2038105469236 34.32990023566977 14.2534258295755 H 0.0 **** 0.41
11763 H 32.7387957331263 34.13343660878243 12.762995887749433 H 0.0 **** 0.41
11764 O 20.01823343444218 37.2823534190852 28.805246653166297 O 0.0 **** -0.82
11765 H 19.496418310419728 37.083843479784946 29.600775607921022 H 0.0 **** 0.41
11766 H 19.839449767837067 38.21321388740713 28.510810149811597 H 0.0 **** 0.41
11767 O 29.683440660084113 14.979211481449553 8.061236502684347 O 0.0 **** -0.82
11768 H 30.536024322650256 15.13499954409447 8.565372333453134 H 0.0 **** 0.41
11769 H 29.98574089877588 15.251930286569774 7.131371197466589 H 0.0 **** 0.41
11770 O 2.4497726211204345 24.719280910228488 19.09062270186424 O 0.0 **** -0.82
11771 H 2.199965630790582 24.262272762370273 18.223866887292377 H 0.0 **** 0.41
11772 H 3.0109769337982644 24.113096094603197 19.619507846404638 H 0.0 **** 0.41
11773 O 20.04195969799732 2.432133517806347 22.1899597930868 O 0.0 **** -0.82
11774 H 19.87859477774007 1.9013988738132293 21.369697926369334 H 0.0 **** 0.41
11775 H 21.01734992671925 2.3178214177358365 22.244934089286527 H 0.0 **** 0.41
11776 O 18.848275639667236 0.9640852620618645 19.168465095397487 O 0.0 **** -0.82
11777 H 18.573444450652374 0.45209659527954216 20.05366074632717 H 0.0 **** 0.41
11778 H 19.51814235607759 0.33238419585855183 18.732590938433994 H 0.0 **** 0.41
11779 O 40.22312261482955 35.65044577102679 44.882790463075935 O 0.0 **** -0.82
11780 H 40.02613396920856 36.0610048838336 43.94513785703701 H 0.0 **** 0.41
11781 H 41.11402448968218 35.888025748308806 45.247557589471256 H 0.0 **** 0.41
11782 O 22.804424674086782 31.22515366002795 38.632650775643356 O 0.0 **** -0.82
11783 H 21.849303003667252 30.864527949290625 38.49374253866271 H 0.0 **** 0.41
11784 H 22.761916055188312 32.19953922147605 38.457999569940924 H 0.0 **** 0.41
11785 O 43.162758286475594 28.394421126360744 47.318407449420064 O 0.0 **** -0.82
11786 H 42.92764940436277 28.497424650165293 46.35690311687598 H 0.0 **** 0.41
11787 H 42.37349555474728 27.921976719263863 47.67747522017483 H 0.0 **** 0.41
11788 O 35.382972413879735 4.466862667118902 39.80536486278796 O 0.0 **** -0.82
11789 H 36.292709802887074 4.5872911316578 39.36325314309595 H 0.0 **** 0.41
11790 H 35.259057014466215 5.042603900319463 40.535023955510155 H 0.0 **** 0.41
11791 O 23.212632511066982 22.511149565147175 21.717711126428522 O 0.0 **** -0.82
11792 H 23.989621710929406 22.90425805030461 21.244909565214616 H 0.0 **** 0.41
11793 H 23.238715711796175 21.565364016797698 21.36121644146446 H 0.0 **** 0.41
11794 O 17.060442253923576 34.26116328812841 9.48543555339949 O 0.0 **** -0.82
11795 H 17.573473758715448 33.41996906643922 9.190444541041487 H 0.0 **** 0.41
11796 H 17.016983331371897 34.13506473336763 10.515515106788605 H 0.0 **** 0.41
11797 O 4.63060681608323 11.638878802896933 12.020492284458996 O 0.0 **** -0.82
11798 H 4.068627268767187 12.493535110207105 12.146891383413276 H 0.0 **** 0.41
11799 H 5.584686878001953 11.967942558515034 11.936622533397497 H 0.0 **** 0.41
11800 O 38.96979360915718 22.598761597919662 11.75360217864296 O 0.0 **** -0.82
11801 H 39.55199356242017 21.77725693335036 11.481399028933732 H 0.0 **** 0.41
11802 H 38.12681313693521 22.218745119407828 12.070899917748283 H 0.0 **** 0.41
11803 O 11.46786995981791 29.555831329265764 21.408605894463236 O 0.0 **** -0.82
11804 H 11.929964650584992 28.68927642028522 21.74876969098247 H 0.0 **** 0.41
11805 H 10.52791051769492 29.223619674533303 21.224768851450932 H 0.0 **** 0.41
11806 O 16.70662616185791 36.293937806771645 2.890533148516442 O 0.0 **** -0.82
11807 H 16.952911434991954 35.99161519984187 3.7961027951794737 H 0.0 **** 0.41
11808 H 17.502300973009266 36.00445163824754 2.385926489097535 H 0.0 **** 0.41
11809 O 26.24049038959613 7.520306154524121 27.12201923264517 O 0.0 **** -0.82
11810 H 26.628218107118165 6.896006452274996 27.83596812562662 H 0.0 **** 0.41
11811 H 27.056404949122143 7.680869296177562 26.51051245325392 H 0.0 **** 0.41
11812 O 34.16384732050089 18.274781622341646 19.397873519231382 O 0.0 **** -0.82
11813 H 34.85828436612078 17.92245904301044 18.717986548239512 H 0.0 **** 0.41
11814 H 33.83835376022391 19.179926021637993 18.925057807176646 H 0.0 **** 0.41
11815 O 25.459371619597896 30.977171589623296 37.75830531714268 O 0.0 **** -0.82
11816 H 25.761562222134515 30.11728195094281 38.23957271604352 H 0.0 **** 0.41
11817 H 24.575259728260583 31.27344558174771 38.1730526556034 H 0.0 **** 0.41
11818 O 6.471484663905587 10.654692184623462 48.484010809104404 O 0.0 **** -0.82
11819 H 6.909415677319269 11.502555354064413 48.057444163280245 H 0.0 **** 0.41
11820 H 5.490520395152249 10.746568026361729 48.22303666729869 H 0.0 **** 0.41
11821 O 39.36457900899424 42.78845908822192 36.51908617886588 O 0.0 **** -0.82
11822 H 38.57409141568218 42.7109806412879 37.13755699707202 H 0.0 **** 0.41
11823 H 39.72226192910904 41.80938609164486 36.477566641097404 H 0.0 **** 0.41
11824 O 41.53382509457863 18.37958437084355 0.8441740922162427 O 0.0 **** -0.82
11825 H 41.713357217775325 17.411013103450628 0.7627580116261655 H 0.0 **** 0.41
11826 H 42.4763324260416 18.722901560840608 0.8680897178425105 H 0.0 **** 0.41
11827 O 14.181673305093014 6.629817811179595 20.633634522291427 O 0.0 **** -0.82
11828 H 14.560032048935255 6.285617092603409 19.711674335116566 H 0.0 **** 0.41
11829 H 13.280705579763321 6.982877743743993 20.316205103255804 H 0.0 **** 0.41
11830 O 7.776924356516227 17.4735952791357 1.1727809016055786 O 0.0 **** -0.82
11831 H 7.385232273193133 17.288622127197552 0.2623182416126663 H 0.0 **** 0.41
11832 H 6.990409801573606 17.61889435095359 1.801031083075444 H 0.0 **** 0.41
11833 O 7.387733831913621 32.16843342984683 21.267729772335542 O 0.0 **** -0.82
11834 H 7.972735523131462 32.81198978750343 21.76577968089012 H 0.0 **** 0.41
11835 H 6.502729861909714 32.618868157956726 21.432612986756553 H 0.0 **** 0.41
11836 O 38.51719830712619 6.900175013727797 40.43491922375296 O 0.0 **** -0.82
11837 H 39.13762712933375 6.314478038837182 41.01286700677697 H 0.0 **** 0.41
11838 H 39.00404208789179 7.695121842859445 39.994570266820745 H 0.0 **** 0.41
11839 O 4.290050384115176 17.128005339872267 46.6215009096011 O 0.0 **** -0.82
11840 H 3.5179718832519953 16.43680878176293 46.437215943683995 H 0.0 **** 0.41
11841 H 4.778145990079956 17.26012804495734 45.77750734712272 H 0.0 **** 0.41
11842 O 38.04867853587786 8.889239731366871 45.04476711845513 O 0.0 **** -0.82
11843 H 37.92396068743015 9.8476887754113 45.40094072354345 H 0.0 **** 0.41
11844 H 37.5836303369054 8.862653863243175 44.09980783558609 H 0.0 **** 0.41
11845 O 42.23625644891134 47.76598785344654 40.53398989523858 O 0.0 **** -0.82
11846 H 42.06648520384843 48.11481769216071 39.602935941624835 H 0.0 **** 0.41
11847 H 41.235805948366824 47.438559397504314 40.61312008683238 H 0.0 **** 0.41
11848 O 44.53941466035788 39.50771790796696 35.91679935688408 O 0.0 **** -0.82
11849 H 44.31189916576721 38.931795842931706 36.74316350048315 H 0.0 **** 0.41
11850 H 45.25724887041448 40.15971725314551 36.235817474575256 H 0.0 **** 0.41
11851 O 22.814482683710626 11.641406569834624 42.44869082908075 O 0.0 **** -0.82
11852 H 22.098666692185777 12.161416922178717 41.90159848565477 H 0.0 **** 0.41
11853 H 23.70753142705929 11.953780277776413 42.15028843107148 H 0.0 **** 0.41
11854 O 46.384064645652856 47.28031788958844 32.38749387230016 O 0.0 **** -0.82
11855 H 46.68710020631144 46.400992601479395 32.62496003768331 H 0.0 **** 0.41
11856 H 45.79658676795833 47.25027812083267 31.537901069475726 H 0.0 **** 0.41
11857 O 8.772157669396536 9.582283672874226 19.34425948672557 O 0.0 **** -0.82
11858 H 7.793665921503051 9.277010474311474 19.538693565112087 H 0.0 **** 0.41
11859 H 9.403965734181403 8.795870635020485 19.25385804206412 H 0.0 **** 0.41
11860 O 17.578652218396186 46.912033737751116 27.837576244940642 O 0.0 **** -0.82
11861 H 16.884317376978373 46.25897751658346 28.24576586112558 H 0.0 **** 0.41
11862 H 17.974555360892523 47.45587585741277 28.598881397238195 H 0.0 **** 0.41
11863 O 6.269092244138377 46.47158212243799 44.44960612985958 O 0.0 **** -0.82
11864 H 5.709547289800594 46.04308776027088 43.719082070959196 H 0.0 **** 0.41
11865 H 6.67467335526793 45.60589590114864 44.83364208273226 H 0.0 **** 0.41
11866 O 33.01786459468377 14.926138620520238 34.97716237908633 O 0.0 **** -0.82
11867 H 32.78494274243872 14.223537466808722 35.670441247540325 H 0.0 **** 0.41
11868 H 33.52175462562123 14.345466253192793 34.32229674605784 H 0.0 **** 0.41
11869 O 17.175522323612196 15.404888965674804 17.469442583641534 O 0.0 **** -0.82
11870 H 17.276047777104647 16.33028226988016 17.839295985962845 H 0.0 **** 0.41
11871 H 16.496567246655268 14.994036998747022 18.096941248519425 H 0.0 **** 0.41
11872 O 34.51443388581832 14.033063188299009 40.381187878175396 O 0.0 **** -0.82
11873 H 35.36187986315147 13.585590835596028 39.98393016006639 H 0.0 **** 0.41
11874 H 34.67065600080536 14.38882689480526 41.291776953280284 H 0.0 **** 0.41
11875 O 4.1607933139284015 15.15294665983032 14.689063440149983 O 0.0 **** -0.82
11876 H 3.6932593655351837 15.941786106226218 15.034904434441568 H 0.0 **** 0.41
11877 H 4.985845105721822 15.49379513832352 14.15566006076799 H 0.0 **** 0.41
11878 O 27.584184232104732 2.349049296943861 46.65757805891403 O 0.0 **** -0.82
11879 H 28.31840306316218 1.857614212722352 46.096830116116266 H 0.0 **** 0.41
11880 H 27.33773799936702 1.700073351931877 47.429811867282474 H 0.0 **** 0.41
11881 O 41.67550207284364 5.059973589243403 19.110687245811256 O 0.0 **** -0.82
11882 H 40.81558779270354 4.7873875745431995 18.73992772975485 H 0.0 **** 0.41
11883 H 42.39549302928674 4.379209200348142 18.772412111228995 H 0.0 **** 0.41
11884 O 8.262156332379663 33.7873010273006 24.82628236203443 O 0.0 **** -0.82
11885 H 7.852659548728579 33.00025063110211 25.35860742417047 H 0.0 **** 0.41
11886 H 7.536432723780028 34.02808648808706 24.194646975986483 H 0.0 **** 0.41
11887 O 2.2061839485595214 49.44286917839706 48.557055134730255 O 0.0 **** -0.82
11888 H 2.7677297472028846 50.28461249845821 48.63777541355275 H 0.0 **** 0.41
11889 H 1.5179444255795838 49.603032754276235 47.82118648978825 H 0.0 **** 0.41
11890 O 38.62361176580486 0.6064090129151651 47.16155985140758 O 0.0 **** -0.82
11891 H 39.436561948737584 1.1472417811573123 46.96234412954734 H 0.0 **** 0.41
11892 H 38.15028458243843 0.9047830840992432 48.02102708807906 H 0.0 **** 0.41
11893 O 35.16956166501502 33.309131905554516 46.10924886611336 O 0.0 **** -0.82
11894 H 35.67811790426373 33.92447995840163 46.71742769236865 H 0.0 **** 0.41
11895 H 34.57405030599128 32.68961443353335 46.633814177337634 H 0.0 **** 0.41
11896 O 13.914405797727966 39.48754673812177 10.174839331639967 O 0.0 **** -0.82
11897 H 13.219250331069077 38.894893109044084 9.632445685907399 H 0.0 **** 0.41
11898 H 14.790495733332747 39.088325475571196 9.79227018596468 H 0.0 **** 0.41
11899 O 6.805635871316888 26.867317602200607 11.339125807105063 O 0.0 **** -0.82
11900 H 6.886152614508823 27.26666322325287 12.282344035242005 H 0.0 **** 0.41
11901 H 6.519768350771827 27.62470418871453 10.674075460728822 H 0.0 **** 0.41
11902 O 46.4289062058059 5.528046158192126 45.24434443825793 O 0.0 **** -0.82
11903 H 45.96503690545967 4.618454474080714 45.101687711357854 H 0.0 **** 0.41
11904 H 46.11231392168152 6.035584856121645 44.462156595351416 H 0.0 **** 0.41
11905 O 39.6102699512789 44.040232782697274 34.32986682213731 O 0.0 **** -0.82
11906 H 39.50022964533118 43.40588179836721 35.07118732198905 H 0.0 **** 0.41
11907 H 39.77902930869903 43.46815148828942 33.502141521023354 H 0.0 **** 0.41
11908 O 17.40142739227713 22.76272032180093 4.960068350932615 O 0.0 **** -0.82
11909 H 17.490239102664667 23.61354038809711 5.540501911863814 H 0.0 **** 0.41
11910 H 17.22042897621754 23.099790988501432 4.055037186808776 H 0.0 **** 0.41
11911 O 1.153444027090437 1.400043514572289 8.251751818578008 O 0.0 **** -0.82
11912 H 2.0726939171495005 1.3865777896257399 8.772386249096982 H 0.0 **** 0.41
11913 H 1.2514423399386558 0.6984429392287979 7.482572655776366 H 0.0 **** 0.41
11914 O 49.45375153228265 27.498080268923868 24.862918722630955 O 0.0 **** -0.82
11915 H 48.997903799936054 26.995951275824808 25.668664866282224 H 0.0 **** 0.41
11916 H 50.41443238377774 27.328377456419407 24.91070741988306 H 0.0 **** 0.41
11917 O 21.022911857281706 36.37288728047146 2.68410345035396 O 0.0 **** -0.82
11918 H 21.032908681918162 36.71163557502375 3.6134048692061973 H 0.0 **** 0.41
11919 H 21.560321055105298 37.130043458305835 2.2361053622458167 H 0.0 **** 0.41
11920 O 4.033548673893719 42.416229020548414 9.996225641442123 O 0.0 **** -0.82
11921 H 4.969958647250685 42.56745289203045 9.605283548173368 H 0.0 **** 0.41
11922 H 3.748890734750856 41.62173828775233 9.391142582057235 H 0.0 **** 0.41
11923 O 33.12683819956931 28.297081436924707 16.086805685787017 O 0.0 **** -0.82
11924 H 33.64093903553205 27.477665506853434 15.72907759883026 H 0.0 **** 0.41
11925 H 33.56863041271736 29.052589646535374 15.620152405647039 H 0.0 **** 0.41
11926 O 38.50310112964026 24.259133635179218 21.005777450679837 O 0.0 **** -0.82
11927 H 38.319348672834536 24.533863570416123 21.936611316337313 H 0.0 **** 0.41
11928 H 38.51194857685859 24.993821581899233 20.33766230781203 H 0.0 **** 0.41
11929 O 5.135422031472944 22.23109707285328 10.717318352530441 O 0.0 **** -0.82
11930 H 5.241677349003382 22.193707902015305 9.702439697981347 H 0.0 **** 0.41
11931 H 5.061979789300855 23.185539866171087 11.053541607889748 H 0.0 **** 0.41
11932 O 16.320474308066565 2.8565095413758 43.551646109559776 O 0.0 **** -0.82
11933 H 15.963559264080853 2.9863205660662686 42.63579299300403 H 0.0 **** 0.41
11934 H 16.896366665688376 3.659763668604164 43.75342719622658 H 0.0 **** 0.41
11935 O 34.79029054441788 15.65424681890126 30.763715786585404 O 0.0 **** -0.82
11936 H 35.06232704046426 16.499067306241752 31.27217916314309 H 0.0 **** 0.41
11937 H 35.417025849569306 14.924735200461479 31.048425985862036 H 0.0 **** 0.41
11938 O 9.69910720379041 36.6021406962501 10.177220536356883 O 0.0 **** -0.82
11939 H 9.960927940536772 35.99696172242437 10.982962466254849 H 0.0 **** 0.41
11940 H 10.114002231794085 36.198029113646065 9.368722585583448 H 0.0 **** 0.41
11941 O 22.538792557395514 19.23508534354862 42.38414187779357 O 0.0 **** -0.82
11942 H 22.351301896615425 20.190434578360296 42.20632836501704 H 0.0 **** 0.41
11943 H 21.69883538316852 18.758371581538213 42.52201685118028 H 0.0 **** 0.41
11944 O 3.3158785721963255 43.406923595065265 24.447064482197845 O 0.0 **** -0.82
11945 H 3.420089267988452 44.37388614003925 24.64832367794753 H 0.0 **** 0.41
11946 H 3.170880828653104 42.910320564578726 25.332249203080025 H 0.0 **** 0.41
11947 O 8.554723501285306 21.874800744492422 48.12482596547801 O 0.0 **** -0.82
11948 H 7.985706286454131 21.35811540623221 47.457068197155046 H 0.0 **** 0.41
11949 H 9.400873365312473 22.24498053043705 47.67336891540419 H 0.0 **** 0.41
11950 O 6.559331968632975 19.630214889481433 48.41787049787637 O 0.0 **** -0.82
11951 H 6.753453554687536 18.712002295291523 48.749615313500826 H 0.0 **** 0.41
11952 H 6.359565492087461 20.058191633527784 49.35660348924154 H 0.0 **** 0.41
11953 O 21.48182906449241 33.68865476917053 7.213569644730109 O 0.0 **** -0.82
11954 H 21.958720357738056 32.83454623041789 6.841568874164458 H 0.0 **** 0.41
11955 H 22.106288777127332 33.95263053263099 7.9983396872369745 H 0.0 **** 0.41
11956 O 40.999300028138975 5.842611518926735 47.553618651406794 O 0.0 **** -0.82
11957 H 41.981028215039174 5.8650518205638695 47.34176961332206 H 0.0 **** 0.41
11958 H 40.6708778425643 6.665748408428098 47.02846544648264 H 0.0 **** 0.41
11959 O 25.130282566969665 30.312297459587626 6.605837397734934 O 0.0 **** -0.82
11960 H 25.092762931238138 29.40785731610481 7.040507360863352 H 0.0 **** 0.41
11961 H 25.274926800828197 30.901190086789427 7.435987552370329 H 0.0 **** 0.41
11962 O 17.105835177702346 9.176352925963732 23.35040901862351 O 0.0 **** -0.82
11963 H 17.720790671662385 9.470423785826851 22.575397798764406 H 0.0 **** 0.41
11964 H 17.30872126384945 8.159317591317265 23.263289946968907 H 0.0 **** 0.41
11965 O 49.17730133988111 8.171326226335282 25.026136227094792 O 0.0 **** -0.82
11966 H 49.947826603266925 7.810275032786173 24.489730090130394 H 0.0 **** 0.41
11967 H 48.85465763035751 8.883374165996933 24.437088927079937 H 0.0 **** 0.41
11968 O 3.061924280788155 48.01224531813647 15.53841340500749 O 0.0 **** -0.82
11969 H 3.7472817112384433 48.159689990687625 14.854525008306993 H 0.0 **** 0.41
11970 H 3.283135399753405 48.51848220344779 16.369899265000527 H 0.0 **** 0.41
11971 O 26.101133455272674 5.170002413212501 10.625043361248537 O 0.0 **** -0.82
11972 H 26.118010938568773 5.429956246056534 9.648162239077529 H 0.0 **** 0.41
11973 H 27.050912647338777 5.204758553604854 10.932758318880872 H 0.0 **** 0.41
11974 O 11.731241490513476 25.722214898772236 29.55617948814222 O 0.0 **** -0.82
11975 H 11.64372916300543 25.825459489082505 28.517174495991043 H 0.0 **** 0.41
11976 H 11.348651522444579 24.779192213063425 29.683620108612796 H 0.0 **** 0.41
11977 O 35.212463601786716 16.12625401256853 49.6677184591691 O 0.0 **** -0.82
11978 H 35.917572813150905 16.30386413499521 48.98472944392 H 0.0 **** 0.41
11979 H 34.58551729585746 16.925674821938582 49.64295808259407 H 0.0 **** 0.41
11980 O 35.20955341782775 18.09435697978593 24.247010607731475 O 0.0 **** -0.82
11981 H 35.50023791655019 18.111198224399903 23.248373213394277 H 0.0 **** 0.41
11982 H 34.460143106380066 18.765359889827625 24.32731789982227 H 0.0 **** 0.41
11983 O 31.923966419957136 17.192227730536015 15.87926047966758 O 0.0 **** -0.82
11984 H 32.47824650556995 17.374702576612417 15.072223983595647 H 0.0 **** 0.41
11985 H 32.21163170295202 16.294690206322326 16.16093544472452 H 0.0 **** 0.41
11986 O 19.31696576801453 49.46386281232011 33.9668463645251 O 0.0 **** -0.82
11987 H 19.139405515339448 48.71108247894289 33.29957500162021 H 0.0 **** 0.41
11988 H 20.22377699336834 49.22839316075144 34.30164693371631 H 0.0 **** 0.41
11989 O 17.338915980531986 36.8017297181947 8.039282055366805 O 0.0 **** -0.82
11990 H 17.104639748067907 35.877182895800516 8.446959282859916 H 0.0 **** 0.41
11991 H 18.32986362640197 36.85277153075442 8.330865460898046 H 0.0 **** 0.41
11992 O 10.853796103103015 22.980846586192964 29.486285817396016 O 0.0 **** -0.82
11993 H 11.056614019655079 22.67105469964193 30.427159083755996 H 0.0 **** 0.41
11994 H 10.477977985116993 22.278018884889768 28.916409710872735 H 0.0 **** 0.41
11995 O 44.967576775325966 16.52369884276863 34.48314028617092 O 0.0 **** -0.82
11996 H 45.915092275702136 16.241587519165257 34.77487565374132 H 0.0 **** 0.41
11997 H 44.42913427961908 15.911347451207966 35.13140964680386 H 0.0 **** 0.41
11998 O 33.028960303155344 47.664654859086035 2.265568577206629 O 0.0 **** -0.82
11999 H 33.49923099281597 48.46493700433999 1.7491611875930388 H 0.0 **** 0.41
12000 H 33.39044252491362 46.85482807136856 1.7956602030072162 H 0.0 **** 0.41
12001 O 47.340616112803424 3.8453951303270557 11.13688017598017 O 0.0 **** -0.82
12002 H 48.17134101126557 3.2437337597808735 11.171965940178081 H 0.0 **** 0.41
12003 H 46.74693078093596 3.2940255725421963 10.56020625460025 H 0.0 **** 0.41
12004 O 8.88457218698126 49.02374419108576 36.79335717168806 O 0.0 **** -0.82
12005 H 9.493050330666927 48.2084067170272 37.01954069570169 H 0.0 **** 0.41
12006 H 8.460269338736676 49.26040059880777 37.66448483794599 H 0.0 **** 0.41
12007 O 7.928264390751103 19.446631965673173 6.300548666912375 O 0.0 **** -0.82
12008 H 7.415336816393676 19.83103561218453 5.517974888525533 H 0.0 **** 0.41
12009 H 8.694633907155989 20.086309939628443 6.579499889346765 H 0.0 **** 0.41
12010 O 36.59845354003318 20.722632252509328 49.22525776484755 O 0.0 **** -0.82
12011 H 36.9064371932162 20.375981516017546 48.28939073341514 H 0.0 **** 0.41
12012 H 35.76864631211172 21.136711723046773 48.98071016119292 H 0.0 **** 0.41
12013 O 26.51741093583513 48.508044473026445 39.60891103722042 O 0.0 **** -0.82
12014 H 25.683866762438228 48.494726528113944 39.034087731446846 H 0.0 **** 0.41
12015 H 26.97006656139775 47.63018776451083 39.293101027099254 H 0.0 **** 0.41
12016 O 47.09267176449857 4.974216430649349 32.70622405724145 O 0.0 **** -0.82
12017 H 46.23530317528618 4.393269108192605 32.7803366408147 H 0.0 **** 0.41
12018 H 47.83608599501778 4.392861717887115 33.208822414795996 H 0.0 **** 0.41
12019 O 31.603847298328834 33.13553007234222 0.8329345284301368 O 0.0 **** -0.82
12020 H 32.555791069190505 33.24415229537428 0.496146898822893 H 0.0 **** 0.41
12021 H 31.14263832604881 32.5834812984703 0.07199042270851663 H 0.0 **** 0.41
12022 O 10.35666988823332 16.717949010398556 29.49524423393623 O 0.0 **** -0.82
12023 H 10.621771473692135 15.841108702007688 29.087677934301844 H 0.0 **** 0.41
12024 H 10.37315380149137 16.584391775974638 30.503003617902543 H 0.0 **** 0.41
12025 O 29.848060620646066 1.105390649453959 44.96980827521016 O 0.0 **** -0.82
12026 H 30.629522094067823 1.6907050970992543 44.655543017475416 H 0.0 **** 0.41
12027 H 29.781616846121565 0.29781825320920063 44.34913429527201 H 0.0 **** 0.41
12028 O 46.47524957549391 38.990069297461176 42.795164838557135 O 0.0 **** -0.82
12029 H 46.28389147258858 39.5432121352927 43.62292780147815 H 0.0 **** 0.41
12030 H 47.35565014508464 39.26554451991433 42.42939427137084 H 0.0 **** 0.41
12031 O 8.983606374661356 19.91946896279443 44.50181828725413 O 0.0 **** -0.82
12032 H 9.135890224368538 19.84777511621704 43.48820133032636 H 0.0 **** 0.41
12033 H 8.283920437262978 20.549939497446413 44.54123336708814 H 0.0 **** 0.41
12034 O 23.130293609941972 37.3631343110917 11.710231535429585 O 0.0 **** -0.82
12035 H 23.263845837448027 37.60178947938357 12.69317885316849 H 0.0 **** 0.41
12036 H 22.412967879024823 37.95083520532602 11.353065041998095 H 0.0 **** 0.41
12037 O 29.07934737091429 33.40876523401391 25.998026755030445 O 0.0 **** -0.82
12038 H 28.99497686340504 33.87676704385283 26.87677481643788 H 0.0 **** 0.41
12039 H 29.956149749618017 33.75304965252554 25.704875400394954 H 0.0 **** 0.41
12040 O 46.47964229100021 44.48782583570557 4.7105047855244075 O 0.0 **** -0.82
12041 H 47.30267961860655 44.88954857215638 5.165970896357724 H 0.0 **** 0.41
12042 H 45.66125687322482 44.42907939026944 5.260484339263704 H 0.0 **** 0.41
12043 O 18.92957999480258 17.479738555909176 26.257214857856386 O 0.0 **** -0.82
12044 H 19.15028938580261 16.75927671687338 26.90521549268866 H 0.0 **** 0.41
12045 H 19.10942025455246 18.37802278619941 26.642780576973898 H 0.0 **** 0.41
12046 O 26.72038569394208 27.426839872384367 0.24591783999004235 O 0.0 **** -0.82
12047 H 26.879690945422297 27.19569218691932 1.1934133187586298 H 0.0 **** 0.41
12048 H 26.915372094990275 28.414401036529974 0.19936794037622008 H 0.0 **** 0.41
12049 O 34.10226369413985 31.59246718247332 3.3490946904288634 O 0.0 **** -0.82
12050 H 33.64024258089165 30.754725042824603 3.071082545543611 H 0.0 **** 0.41
12051 H 35.0779383204179 31.47190604208507 3.0918872982109065 H 0.0 **** 0.41
12052 O 39.387436217732755 47.59261027727933 39.76719796782948 O 0.0 **** -0.82
12053 H 39.93282380825579 48.27443525622338 39.24176847230942 H 0.0 **** 0.41
12054 H 38.59274429567809 48.12483263605962 40.1320148849514 H 0.0 **** 0.41
12055 O 31.55443741395789 45.55312052175301 35.41911201301072 O 0.0 **** -0.82
12056 H 32.29901175528925 45.90301305084169 34.769522628711215 H 0.0 **** 0.41
12057 H 30.670946211022667 45.457036957996216 34.898197825182905 H 0.0 **** 0.41
12058 O 22.249115998884733 4.855316412625906 17.97565854552056 O 0.0 **** -0.82
12059 H 21.97603204149577 5.384727390257197 17.13093845944346 H 0.0 **** 0.41
12060 H 21.737974174944867 4.014254031248525 18.175246980401308 H 0.0 **** 0.41
12061 O 46.14289443936873 17.367098955409574 0.14854981089703045 O 0.0 **** -0.82
12062 H 45.54193277212807 18.18998371995184 0.22330131928437424 H 0.0 **** 0.41
12063 H 45.567480394491284 16.66362576779956 0.5506538362446847 H 0.0 **** 0.41
12064 O 36.12541822056928 25.00620457407208 37.71114555341044 O 0.0 **** -0.82
12065 H 35.48824160109773 24.23708100075122 37.89320569320709 H 0.0 **** 0.41
12066 H 35.88484476824447 25.44950924734686 36.85820999752085 H 0.0 **** 0.41
12067 O 9.028130547189889 3.7660280759712847 8.58176796140016 O 0.0 **** -0.82
12068 H 9.439606776968112 3.5607492766680053 7.625769622875261 H 0.0 **** 0.41
12069 H 8.960934215027926 2.8830882065669385 9.053383350703285 H 0.0 **** 0.41
12070 O 11.09471844301077 3.499368584647698 43.28067513034027 O 0.0 **** -0.82
12071 H 10.14379305754225 3.773004555266276 43.457962869952155 H 0.0 **** 0.41
12072 H 11.639249031569332 4.393151859666084 43.32170854519295 H 0.0 **** 0.41
12073 O 40.62111946237339 24.520436743225947 0.005733621024489821 O 0.0 **** -0.82
12074 H 39.71344430736977 24.24254897998462 -0.3212628077108661 H 0.0 **** 0.41
12075 H 41.193336172974554 23.648862540817284 -0.10895138995457643 H 0.0 **** 0.41
12076 O 11.254733859583334 43.35659549781043 23.4216095703255 O 0.0 **** -0.82
12077 H 11.841721860387226 44.1559224734372 23.637553119073246 H 0.0 **** 0.41
12078 H 11.061625091893562 42.992144672761604 24.33135948999292 H 0.0 **** 0.41
12079 O 13.977141390798096 19.122869792871974 2.5622055390453653 O 0.0 **** -0.82
12080 H 13.317793071218404 18.8130311519834 3.3203664467171166 H 0.0 **** 0.41
12081 H 14.829872303245168 18.671565798278486 2.761919012217831 H 0.0 **** 0.41
12082 O 12.8617552152186 27.194242550496316 22.111113080510318 O 0.0 **** -0.82
12083 H 13.53887577305877 26.939781017280495 21.37601302496962 H 0.0 **** 0.41
12084 H 13.324504097194328 26.897721990080043 23.009235099757525 H 0.0 **** 0.41
12085 O 16.492192497598225 5.548527563185922 36.62668743537678 O 0.0 **** -0.82
12086 H 16.46632060730055 6.114546033822101 35.78920537798296 H 0.0 **** 0.41
12087 H 15.548865783711904 5.096663262963913 36.634005688161274 H 0.0 **** 0.41
12088 O 31.960090686867794 3.0139088615130802 15.582693671740184 O 0.0 **** -0.82
12089 H 31.63484145655672 2.102590193093172 15.99445767537485 H 0.0 **** 0.41
12090 H 32.012789370551666 2.8885832243819007 14.563962523835672 H 0.0 **** 0.41
12091 O 40.59800934044224 20.484211867596652 32.14938212437804 O 0.0 **** -0.82
12092 H 40.90861248258048 21.07837911741249 31.409673026773774 H 0.0 **** 0.41
12093 H 39.83869450812023 20.134247703787686 31.66695974945834 H 0.0 **** 0.41
12094 O 17.92867991113529 12.849976988052502 5.651510697782316 O 0.0 **** -0.82
12095 H 17.377938181172013 12.084120496245447 5.876253438210638 H 0.0 **** 0.41
12096 H 18.658257032473188 12.510397973277428 4.999825162756593 H 0.0 **** 0.41
12097 O 47.155613934616326 29.00933199114508 23.89255334859801 O 0.0 **** -0.82
12098 H 46.376704873452844 28.394236062640413 23.626905602207177 H 0.0 **** 0.41
12099 H 47.92290623583985 28.360422345232205 23.98801986419454 H 0.0 **** 0.41
12100 O 31.256508363241593 10.911607027090135 37.64667459871167 O 0.0 **** -0.82
12101 H 30.408477775817175 11.299427907062835 37.19183248771527 H 0.0 **** 0.41
12102 H 30.86656139500506 10.231849403201807 38.30061827598066 H 0.0 **** 0.41
12103 O 26.295841449660337 36.758756391885555 34.95050490341696 O 0.0 **** -0.82
12104 H 27.040983506020773 36.20694165197903 34.570800763464455 H 0.0 **** 0.41
12105 H 26.62328477856215 37.0671958126398 35.85741114052391 H 0.0 **** 0.41
12106 O 4.12551878217561 25.86933406693227 21.62282381236942 O 0.0 **** -0.82
12107 H 4.834829662242065 25.455915128063094 21.00253881939038 H 0.0 **** 0.41
12108 H 4.210298258163573 25.32967791959019 22.470567936495982 H 0.0 **** 0.41
12109 O 44.74011653236612 7.455871981526158 32.34616432188453 O 0.0 **** -0.82
12110 H 45.14695351986318 7.032397224870422 31.544563435233584 H 0.0 **** 0.41
12111 H 44.60171312934698 8.422698902930549 32.04843049817181 H 0.0 **** 0.41
12112 O 46.65209485771512 23.59430499102791 20.670676896983693 O 0.0 **** -0.82
12113 H 46.40568537696843 23.463515542190038 19.677232157994286 H 0.0 **** 0.41
12114 H 47.592021334834214 23.23957632944058 20.661089266903932 H 0.0 **** 0.41
12115 O 22.25731493229047 48.83176190216392 44.80786055243994 O 0.0 **** -0.82
12116 H 22.243632448900193 49.58415317185559 45.49423944763137 H 0.0 **** 0.41
12117 H 22.718349359760285 49.236475005071966 44.04968161824061 H 0.0 **** 0.41
12118 O 41.79461942111605 1.5876387270647498 27.658807146905488 O 0.0 **** -0.82
12119 H 42.61247122378317 1.6219300642312078 27.03288652115711 H 0.0 **** 0.41
12120 H 42.21229888739391 1.5007397061562529 28.5772575700975 H 0.0 **** 0.41
12121 O 24.363666120454287 43.40818686808609 22.979156052563365 O 0.0 **** -0.82
12122 H 23.748167725916463 43.78284361878394 22.305167987547 H 0.0 **** 0.41
12123 H 24.04962755317629 42.44919641871473 22.895378468960732 H 0.0 **** 0.41
12124 O 20.08103301707345 28.112617060801423 5.609306822818198 O 0.0 **** -0.82
12125 H 20.700798877966353 28.675220086262797 5.036882998563428 H 0.0 **** 0.41
12126 H 19.888461603985807 28.693587447802948 6.438968707943374 H 0.0 **** 0.41
12127 O 32.97347309044409 34.29607504653901 18.407777503268857 O 0.0 **** -0.82
12128 H 33.13920006734069 33.810508556657766 19.251685954301788 H 0.0 **** 0.41
12129 H 32.952339543450115 33.5822727593953 17.674591276372595 H 0.0 **** 0.41
12130 O 17.33279083606115 33.700065151105804 11.95227033162004 O 0.0 **** -0.82
12131 H 17.173069299590978 32.93946138136437 12.667812049980792 H 0.0 **** 0.41
12132 H 18.33069039415041 33.78295875752693 12.021170622669498 H 0.0 **** 0.41
12133 O 9.957379652789655 11.789206629383692 40.79788746909845 O 0.0 **** -0.82
12134 H 10.11779272654347 12.302003965755091 39.937546198371706 H 0.0 **** 0.41
12135 H 10.760019198803604 11.118229683533002 40.80935912348212 H 0.0 **** 0.41
12136 O 10.42366308114687 32.083559891309406 20.281414969563208 O 0.0 **** -0.82
12137 H 10.74185687849399 31.299343592994465 20.87309750385899 H 0.0 **** 0.41
12138 H 9.53341702164171 32.15665686387756 20.730510331786487 H 0.0 **** 0.41
12139 O 10.309847225924964 20.992475553223514 35.310592511904815 O 0.0 **** -0.82
12140 H 9.856931853077569 21.666672643225823 35.86891387383221 H 0.0 **** 0.41
12141 H 9.661572706299415 21.005243657355287 34.4866521466036 H 0.0 **** 0.41
12142 O 30.43014346421818 2.083872361177453 28.491065704439322 O 0.0 **** -0.82
12143 H 31.291268676812823 1.7732852386220541 28.027933735963316 H 0.0 **** 0.41
12144 H 29.756317105133856 1.418305940081528 28.205965666925294 H 0.0 **** 0.41
12145 O 14.816957663597961 21.672322735408024 16.952044500265984 O 0.0 **** -0.82
12146 H 15.19294144588653 22.54523248596352 16.584024943234578 H 0.0 **** 0.41
12147 H 14.58037958628675 21.13532994803316 16.162646007697074 H 0.0 **** 0.41
12148 O 12.244097776330898 10.417011365162683 40.72333263839718 O 0.0 **** -0.82
12149 H 12.410349078577543 10.847002099640068 39.84473298097453 H 0.0 **** 0.41
12150 H 12.645923917693658 9.518622467487747 40.70507530776122 H 0.0 **** 0.41
12151 O 49.15718774551952 8.274328044185651 20.933599394954967 O 0.0 **** -0.82
12152 H 48.468384145980465 7.960002160987209 21.633700582093567 H 0.0 **** 0.41
12153 H 48.57303810265931 8.577477060897436 20.20424286952914 H 0.0 **** 0.41
12154 O 4.233074738344932 19.423599095190596 42.549396773631244 O 0.0 **** -0.82
12155 H 3.3988091935876312 19.71847568198564 43.01876497402374 H 0.0 **** 0.41
12156 H 4.826641099934321 19.014946941981634 43.334784386111814 H 0.0 **** 0.41
12157 O 13.40055418833699 14.640830916180605 9.3271438022295 O 0.0 **** -0.82
12158 H 12.8734508095893 14.754953456957544 10.224461051880773 H 0.0 **** 0.41
12159 H 14.214679293459653 15.213021250938176 9.493642216033479 H 0.0 **** 0.41
12160 O 23.82534461088683 45.102700531259224 48.87533471015914 O 0.0 **** -0.82
12161 H 24.813564281864384 45.48264781931898 48.97502641117839 H 0.0 **** 0.41
12162 H 23.49998085605995 45.094675255706754 49.82396274428617 H 0.0 **** 0.41
12163 O 27.07042792279875 10.960173862996381 3.4644110602190423 O 0.0 **** -0.82
12164 H 27.874063506925065 11.501340912283768 3.799104119679072 H 0.0 **** 0.41
12165 H 26.536474877604995 11.793964295556588 3.1221991809612035 H 0.0 **** 0.41
12166 O 31.972117688927046 27.356274676004045 42.46577007226057 O 0.0 **** -0.82
12167 H 32.616985201308374 28.12530636168453 42.393333609374146 H 0.0 **** 0.41
12168 H 32.14946891743403 26.777039437859486 41.61415204997184 H 0.0 **** 0.41
12169 O 9.683748954060023 7.168144393446283 13.647007461993368 O 0.0 **** -0.82
12170 H 9.923833159142314 8.116822445417336 13.377250607804001 H 0.0 **** 0.41
12171 H 10.34554168029612 6.488251960473374 13.259737716592454 H 0.0 **** 0.41
12172 O 8.597527252263236 29.78563431124705 39.33852539326496 O 0.0 **** -0.82
12173 H 9.430388433751068 29.38983750882707 38.968711026136084 H 0.0 **** 0.41
12174 H 7.995937933396596 29.14211099273258 38.979760390255365 H 0.0 **** 0.41
12175 O 7.31203381151866 9.782263466409802 23.425496044449233 O 0.0 **** -0.82
12176 H 7.825263732822272 8.873489707907687 23.50298613393352 H 0.0 **** 0.41
12177 H 7.84837302531983 10.443673522004438 22.920348484968486 H 0.0 **** 0.41
12178 O 37.61440029207304 13.469773162577177 19.34072502717805 O 0.0 **** -0.82
12179 H 38.02791740461556 14.416211448046191 19.483371474050102 H 0.0 **** 0.41
12180 H 37.9900158119465 13.132088176486294 18.457610182848075 H 0.0 **** 0.41
12181 O 0.9882339787138577 31.78544656967397 10.232612830270313 O 0.0 **** -0.82
12182 H 1.9933256702240882 32.007039927198406 10.152921707200097 H 0.0 **** 0.41
12183 H 0.49789484947463336 32.59325475885819 9.923210780437813 H 0.0 **** 0.41
12184 O 30.58902669029412 31.386251911199356 32.065028211932386 O 0.0 **** -0.82
12185 H 30.15345793280777 30.502890782180692 32.13330360697924 H 0.0 **** 0.41
12186 H 30.68377649939127 31.58479257102401 31.06087225758275 H 0.0 **** 0.41
12187 O 26.462719094067964 4.513617501016611 40.96602985356277 O 0.0 **** -0.82
12188 H 26.02006207478307 3.8787615207717607 40.320975526520364 H 0.0 **** 0.41
12189 H 26.47162777526937 5.419328871887167 40.43462179670465 H 0.0 **** 0.41
12190 O 15.063674258350236 28.50822598822765 37.824353824201644 O 0.0 **** -0.82
12191 H 15.573526191188602 29.340229321391703 38.097156496143604 H 0.0 **** 0.41
12192 H 15.711948839160003 27.963197752423696 37.249419419540246 H 0.0 **** 0.41
12193 O 27.925845997242465 2.580607894441813 34.34911497305738 O 0.0 **** -0.82
12194 H 28.936385514793187 2.7940180282382725 34.3958738443055 H 0.0 **** 0.41
12195 H 27.782465768569157 2.171250516739908 35.20792169482724 H 0.0 **** 0.41
12196 O 31.4961523709649 34.76257141350313 29.693831789894478 O 0.0 **** -0.82
12197 H 30.758857367053814 34.0877693409167 29.744445566412637 H 0.0 **** 0.41
12198 H 32.05763405721243 34.43283560604861 28.896746422907942 H 0.0 **** 0.41
12199 O 44.57776668469703 38.27965325819729 9.480745270806295 O 0.0 **** -0.82
12200 H 44.85272351457448 37.309579094938925 9.733339440365832 H 0.0 **** 0.41
12201 H 44.713821356358416 38.158448040783526 8.5034296659213 H 0.0 **** 0.41
12202 O 3.246576830779297 21.18887141723763 49.92410311536764 O 0.0 **** -0.82
12203 H 2.551050050331739 21.948599477322013 49.92436316018319 H 0.0 **** 0.41
12204 H 3.19640546805482 20.69628566174093 50.81601054705098 H 0.0 **** 0.41
12205 O 0.7650996945393612 47.882866440047515 9.97013672422765 O 0.0 **** -0.82
12206 H 0.29371563323958183 47.17687512725689 10.534734431685884 H 0.0 **** 0.41
12207 H 0.11068255748790909 48.07426586646058 9.215350720054602 H 0.0 **** 0.41
12208 O 5.531971209515432 40.334560123821156 13.675686421407129 O 0.0 **** -0.82
12209 H 6.271661481475368 39.595662348149 13.488232355046833 H 0.0 **** 0.41
12210 H 4.917582583957383 40.15977893032524 12.880933097393651 H 0.0 **** 0.41
12211 O 42.244940129284586 34.07004474993107 26.94068806499572 O 0.0 **** -0.82
12212 H 42.00612870519353 34.17286996815126 25.969613357807837 H 0.0 **** 0.41
12213 H 43.075973764783136 34.56922207333999 26.95300552212038 H 0.0 **** 0.41
12214 O 6.43971163277692 3.4876338112280507 12.521374129092068 O 0.0 **** -0.82
12215 H 7.115581682300075 4.2284987010756865 12.497127734454194 H 0.0 **** 0.41
12216 H 6.388425296898539 3.1641612296063215 11.54905721987606 H 0.0 **** 0.41
12217 O 41.813750660111864 37.36610289222251 7.495316087127927 O 0.0 **** -0.82
12218 H 41.08726685913615 37.6782016462458 6.857021774016562 H 0.0 **** 0.41
12219 H 41.21873395442225 36.708302680841186 7.926254706210643 H 0.0 **** 0.41
12220 O 6.488031828500998 3.439015661436316 5.446952100791137 O 0.0 **** -0.82
12221 H 6.139866520087679 2.8805816871759338 4.6448537101814225 H 0.0 **** 0.41
12222 H 7.355340029297513 3.1354898859929294 5.761684990062179 H 0.0 **** 0.41
12223 O 20.653478163174512 10.677461632255683 28.905921429373965 O 0.0 **** -0.82
12224 H 20.86336263236803 9.929968771345248 29.511487570221913 H 0.0 **** 0.41
12225 H 19.655996433403374 11.033722601953166 28.98167238280298 H 0.0 **** 0.41
12226 O 35.78247365262466 41.89607520171779 31.224287444364506 O 0.0 **** -0.82
12227 H 35.19864892970893 42.61906156440688 30.81664305569494 H 0.0 **** 0.41
12228 H 35.17512634116559 41.2771225339774 31.781448409665245 H 0.0 **** 0.41
12229 O 47.87569473077429 28.310693333495614 34.07671663038737 O 0.0 **** -0.82
12230 H 47.867040422728 27.74893244818882 33.219755457033834 H 0.0 **** 0.41
12231 H 48.78165291000532 28.700061457597098 34.124228854776476 H 0.0 **** 0.41
12232 O 0.4090108877750609 2.602606422076775 10.886001349606733 O 0.0 **** -0.82
12233 H 0.5178353117209014 1.582908138369902 11.020245747865932 H 0.0 **** 0.41
12234 H 0.851735342892951 2.7069052132019493 10.041443515602554 H 0.0 **** 0.41
12235 O 23.326215531186673 19.792978806669012 12.619523509797402 O 0.0 **** -0.82
12236 H 23.426610357793088 20.231114862589337 13.479021855780184 H 0.0 **** 0.41
12237 H 23.47419297313639 20.540582964263287 11.919046630864605 H 0.0 **** 0.41
12238 O 41.62096269889258 41.31504629670698 46.637553114743405 O 0.0 **** -0.82
12239 H 41.25527431553229 41.80323781519611 47.35480026135667 H 0.0 **** 0.41
12240 H 41.67896680793154 42.042809009666044 45.963382689745764 H 0.0 **** 0.41
12241 O 41.008594367194654 44.582127033192045 45.77346909435263 O 0.0 **** -0.82
12242 H 40.285186375345354 44.3949083923293 46.43750040426275 H 0.0 **** 0.41
12243 H 41.18257792533378 45.60757078082362 45.80158619483569 H 0.0 **** 0.41
12244 O 13.508263407560769 26.922194862607686 4.82160007769787 O 0.0 **** -0.82
12245 H 14.274002906742112 27.468858304673244 5.2937801479720665 H 0.0 **** 0.41
12246 H 13.557867353284692 25.915753828939028 5.102228366226421 H 0.0 **** 0.41
12247 O 10.572091544081019 48.01987400874164 27.815700503166163 O 0.0 **** -0.82
12248 H 11.497037933794966 48.11039750126319 28.099680019018578 H 0.0 **** 0.41
12249 H 10.697219666348895 47.808990983545606 26.843912910795744 H 0.0 **** 0.41
12250 O 2.243198931960896 32.33801930683063 36.93234673254686 O 0.0 **** -0.82
12251 H 1.324818429306199 32.27647405047006 37.437499110871926 H 0.0 **** 0.41
12252 H 2.8882259620848436 31.997438338847985 37.600911700509876 H 0.0 **** 0.41
12253 O 27.396355006055764 46.909855108398986 42.501086506482096 O 0.0 **** -0.82
12254 H 27.69785167648381 45.90109980293428 42.61089515663821 H 0.0 **** 0.41
12255 H 27.587977050811496 47.23860858967019 41.58254747124049 H 0.0 **** 0.41
12256 O 24.100727431506336 16.16325795805074 30.7805274023212 O 0.0 **** -0.82
12257 H 23.851553422367964 15.352344783974427 31.343593715318235 H 0.0 **** 0.41
12258 H 23.997113105426223 17.032948617340796 31.2959836585855 H 0.0 **** 0.41
12259 O 13.468283744329398 3.015320337856707 7.206618888260053 O 0.0 **** -0.82
12260 H 14.222921337991693 2.546284777877162 6.629450392149998 H 0.0 **** 0.41
12261 H 13.435352077394235 2.348743785674344 8.014716632265106 H 0.0 **** 0.41
12262 O 2.45540198012045 23.92802971748457 7.985905620043333 O 0.0 **** -0.82
12263 H 2.601339230091144 23.141194774170405 8.59041419422855 H 0.0 **** 0.41
12264 H 3.251862904519214 24.544605856236874 8.217852213769106 H 0.0 **** 0.41
12265 O 16.84983836488176 20.644784148412896 30.608033109067133 O 0.0 **** -0.82
12266 H 16.032535042078006 21.080908265976234 30.19368923713623 H 0.0 **** 0.41
12267 H 17.638315413460848 21.209186404673392 30.376620047925165 H 0.0 **** 0.41
12268 O 0.07637017895425252 8.73465780412474 27.556333011269658 O 0.0 **** -0.82
12269 H 0.34154070898626976 9.69852410548261 27.66325449423536 H 0.0 **** 0.41
12270 H -0.408591129499996 8.54921660526063 26.63915943155385 H 0.0 **** 0.41
12271 O 33.79434751111884 30.02441091541967 11.351275337843726 O 0.0 **** -0.82
12272 H 33.579343392428996 29.116660818750564 11.750832063489623 H 0.0 **** 0.41
12273 H 34.778377671743335 30.010429657011198 11.386856645426697 H 0.0 **** 0.41
12274 O 18.345371339903423 11.945645644073549 29.262117047673513 O 0.0 **** -0.82
12275 H 17.853009215924637 12.468481489874652 28.549383980740913 H 0.0 **** 0.41
12276 H 17.614614906191083 11.351345887508497 29.769197504549766 H 0.0 **** 0.41
12277 O 14.3657265918891 1.7807156434070024 39.557249661536794 O 0.0 **** -0.82
12278 H 13.507446791340762 1.869991289874476 40.08244065372008 H 0.0 **** 0.41
12279 H 14.371569265630484 0.8510229942830534 39.183912223455295 H 0.0 **** 0.41
12280 O 28.288653119014125 30.907090180926716 36.47930153039227 O 0.0 **** -0.82
12281 H 29.189402380009188 31.20234978568667 36.7571974863459 H 0.0 **** 0.41
12282 H 27.83891095072908 30.366112060142726 37.216512458261946 H 0.0 **** 0.41
12283 O 11.221287309725207 45.72693668850817 1.9471929815993008 O 0.0 **** -0.82
12284 H 12.157067962200165 45.58126696837945 1.6133533540926237 H 0.0 **** 0.41
12285 H 11.045966292476226 44.81150174934346 2.4484878564155252 H 0.0 **** 0.41
12286 O 22.30391150654792 32.21229049856235 2.555269261290576 O 0.0 **** -0.82
12287 H 22.758230901297978 33.123984139943495 2.7714130682560665 H 0.0 **** 0.41
12288 H 22.283538623613197 32.16462957884783 1.4909830190091782 H 0.0 **** 0.41
12289 O 28.561992325109966 23.648277797487538 3.288963424984047 O 0.0 **** -0.82
12290 H 28.875973142019447 24.27345858440578 4.054300360697198 H 0.0 **** 0.41
12291 H 27.62480322411248 23.170060617108728 3.586709038838265 H 0.0 **** 0.41
12292 O 38.79223618172291 11.374371632592373 35.77881642567815 O 0.0 **** -0.82
12293 H 38.77604572689799 12.344629599143788 36.05567726597104 H 0.0 **** 0.41
12294 H 38.4520384754287 10.822619079716057 36.51399598407159 H 0.0 **** 0.41
12295 O 20.91393599814805 13.483623201075995 41.476750447652506 O 0.0 **** -0.82
12296 H 20.883430786804652 14.11356823230423 40.62711434797406 H 0.0 **** 0.41
12297 H 20.92271188144178 14.124146651739641 42.25466273054509 H 0.0 **** 0.41
12298 O 30.825329952296325 4.368780099499908 36.921082591126776 O 0.0 **** -0.82
12299 H 31.566177124987135 5.047392832268642 37.11880864262761 H 0.0 **** 0.41
12300 H 30.576424613748 4.11080821688919 37.89847671615783 H 0.0 **** 0.41
12301 O 2.0463918316993244 19.927505542221834 16.028349573256975 O 0.0 **** -0.82
12302 H 2.354165634229389 20.727025737456838 15.550382258048515 H 0.0 **** 0.41
12303 H 2.1831944496888127 20.05937966395283 16.9798553394711 H 0.0 **** 0.41
12304 O 29.939284125922104 12.513322351163005 46.93470162132009 O 0.0 **** -0.82
12305 H 29.496335529680902 11.593884481582158 46.71842769406783 H 0.0 **** 0.41
12306 H 30.920543542185555 12.252640842939044 47.00443857567143 H 0.0 **** 0.41
12307 O 17.518059881853908 26.535667724627128 36.11127345688888 O 0.0 **** -0.82
12308 H 17.34717389991547 26.211191056342958 37.05226578246215 H 0.0 **** 0.41
12309 H 17.581206938266607 25.74852580014474 35.508585261012996 H 0.0 **** 0.41
12310 O 40.93493930348855 24.566627834348683 4.641036600391402 O 0.0 **** -0.82
12311 H 41.576166400736696 23.91837132484262 4.213599864589334 H 0.0 **** 0.41
12312 H 40.75302707763105 25.131307972393433 3.7711268167823846 H 0.0 **** 0.41
12313 O 13.119115157618639 27.230268776822555 18.116957895442525 O 0.0 **** -0.82
12314 H 13.738119758316815 27.174250935185558 18.962608707483838 H 0.0 **** 0.41
12315 H 13.484125712797727 26.38125721819665 17.728996507541694 H 0.0 **** 0.41
12316 O 45.37564533071962 44.930334518181574 37.644979670003096 O 0.0 **** -0.82
12317 H 45.069858333533695 45.036640453977704 38.604659900410525 H 0.0 **** 0.41
12318 H 44.50850446650918 45.03009465172243 37.113165688859056 H 0.0 **** 0.41
12319 O 12.96089322208778 10.105939048088182 0.6170015211245641 O 0.0 **** -0.82
12320 H 12.963129922049225 10.744959604554666 1.407645768530557 H 0.0 **** 0.41
12321 H 13.942013629815266 9.882739405098917 0.5330729288799034 H 0.0 **** 0.41
12322 O 28.203643476362476 18.222475637830815 41.85441035072851 O 0.0 **** -0.82
12323 H 27.326671167390714 18.13136519153185 42.39395708199878 H 0.0 **** 0.41
12324 H 27.92515054906444 17.775326865111552 40.9825085954349 H 0.0 **** 0.41
12325 O 17.035637211552896 39.34891749966307 3.132380133544182 O 0.0 **** -0.82
12326 H 17.024916415919805 38.48441951149543 2.6355145254053944 H 0.0 **** 0.41
12327 H 16.126289533337555 39.73854823581 2.8632932328440823 H 0.0 **** 0.41
12328 O 10.65712853557768 14.038135058493438 39.17733030743207 O 0.0 **** -0.82
12329 H 11.17606970457671 13.743965309979815 38.37404799622673 H 0.0 **** 0.41
12330 H 11.182848670774305 14.425085336411133 39.948633376877154 H 0.0 **** 0.41
12331 O 41.105493854030435 37.636434739013424 32.35623891663367 O 0.0 **** -0.82
12332 H 41.58979314995428 37.18150932265157 31.61070042770145 H 0.0 **** 0.41
12333 H 41.87449173426934 37.71351084864908 33.019666498368366 H 0.0 **** 0.41
12334 O 41.702147082236436 17.07954935697872 38.88853147290338 O 0.0 **** -0.82
12335 H 41.656882988111846 17.65047093410199 39.68679765652594 H 0.0 **** 0.41
12336 H 42.68746244352157 16.8489202906208 38.85921208949443 H 0.0 **** 0.41
12337 O 3.145323724023347 26.574463213352455 15.85567232077706 O 0.0 **** -0.82
12338 H 3.405862877895486 26.355624968696606 14.889469037687064 H 0.0 **** 0.41
12339 H 2.9777656063636297 27.54038872555156 15.786518591768163 H 0.0 **** 0.41
12340 O 33.196430691460286 23.78595624379725 18.77674112434041 O 0.0 **** -0.82
12341 H 32.88218240464195 23.38811110160462 19.633651787237483 H 0.0 **** 0.41
12342 H 32.42889180553529 24.329205654351224 18.414513133191726 H 0.0 **** 0.41
12343 O 45.2715392057649 43.574321929800995 16.414455733069797 O 0.0 **** -0.82
12344 H 45.20067219744667 43.093497142051824 15.569698423328981 H 0.0 **** 0.41
12345 H 44.469747726874 43.502017761744334 17.00468582421417 H 0.0 **** 0.41
12346 O 20.73184578102891 35.26344525816606 22.54397227356036 O 0.0 **** -0.82
12347 H 20.34363702997766 34.646097854843546 23.260948394593143 H 0.0 **** 0.41
12348 H 19.949838393465374 35.725640942880325 22.193629241909516 H 0.0 **** 0.41
12349 O 47.50065368293445 34.392723889170064 40.370542584149185 O 0.0 **** -0.82
12350 H 47.251830948706235 34.935676338982034 41.16266537707024 H 0.0 **** 0.41
12351 H 47.92509106020955 33.47782884372673 40.61816319855029 H 0.0 **** 0.41
12352 O 5.378202325935959 39.89077793381238 49.7648178499815 O 0.0 **** -0.82
12353 H 5.976127489077591 40.32618728017674 49.01903058099758 H 0.0 **** 0.41
12354 H 5.956258891230682 39.45224593131413 50.41420009794866 H 0.0 **** 0.41
12355 O 25.9866430923364 14.55750895601696 8.125789679745434 O 0.0 **** -0.82
12356 H 25.851142127812096 15.521239336885664 7.758970884727921 H 0.0 **** 0.41
12357 H 26.448493628329242 14.644416708507663 9.030038752616955 H 0.0 **** 0.41
12358 O 17.71583797927238 11.828303153327866 34.81616862016626 O 0.0 **** -0.82
12359 H 17.427619333855986 12.732988482345846 35.299579869797086 H 0.0 **** 0.41
12360 H 17.345441905095072 12.087801558884955 33.889013890442286 H 0.0 **** 0.41
12361 O 38.97927749126982 1.4900266780392428 34.04387084602388 O 0.0 **** -0.82
12362 H 38.685563405823544 2.112769292670265 33.349301743940046 H 0.0 **** 0.41
12363 H 38.26188068740887 0.7867452134938162 34.042730018138684 H 0.0 **** 0.41
12364 O 34.00299662449987 44.8388053022603 24.37352644369409 O 0.0 **** -0.82
12365 H 34.75238946011902 44.180801623483 24.567054580617462 H 0.0 **** 0.41
12366 H 33.39579340439664 44.3726175419962 23.67105388593357 H 0.0 **** 0.41
12367 O 15.419267317682863 14.13805923504663 19.343209394709344 O 0.0 **** -0.82
12368 H 16.11786224986365 13.558575092324551 19.94663655955817 H 0.0 **** 0.41
12369 H 15.157762111207276 15.007984100563458 19.89657034021354 H 0.0 **** 0.41
12370 O 17.054515406177167 27.057172122046147 41.25834336195943 O 0.0 **** -0.82
12371 H 16.86240777454779 26.374922170285384 40.51824102049049 H 0.0 **** 0.41
12372 H 17.617736192469753 26.516156877165727 41.870767332538236 H 0.0 **** 0.41
12373 O 26.225877829833 13.07549360017692 14.61987082497949 O 0.0 **** -0.82
12374 H 25.713207564765913 13.951191216235088 14.566895760496509 H 0.0 **** 0.41
12375 H 27.159362959911075 13.28692549821021 14.919472862141404 H 0.0 **** 0.41
12376 O 22.054899665203756 41.499248509329576 3.00882954944136 O 0.0 **** -0.82
12377 H 21.306658772211858 40.93337279230327 3.4715338213758065 H 0.0 **** 0.41
12378 H 22.670583091494294 41.02469922428353 2.371943501705897 H 0.0 **** 0.41
12379 O 10.967499631196972 0.8952009797676368 44.47790391162518 O 0.0 **** -0.82
12380 H 11.419065403100106 0.334335073023702 43.74672877101427 H 0.0 **** 0.41
12381 H 10.842628343961906 1.8013112365251018 44.14245364587353 H 0.0 **** 0.41
12382 O 17.73358752084276 29.429570752818684 27.874043301981065 O 0.0 **** -0.82
12383 H 18.447803715733414 29.237037822433177 28.478210432188323 H 0.0 **** 0.41
12384 H 18.131610266862737 29.93118692688855 27.14068176647577 H 0.0 **** 0.41
12385 O 39.40091529737511 37.013257125538814 39.37355447717172 O 0.0 **** -0.82
12386 H 39.98231733370587 36.215070308723696 39.58023051761175 H 0.0 **** 0.41
12387 H 40.04273467788331 37.86036939327915 39.38313640385931 H 0.0 **** 0.41
12388 O 24.24567880367323 27.6685294728863 19.670616227161606 O 0.0 **** -0.82
12389 H 24.060887825756936 27.006272694765205 20.42370877147279 H 0.0 **** 0.41
12390 H 24.084024483906347 27.16479462930034 18.78788946102181 H 0.0 **** 0.41
12391 O 25.423035870331944 29.1932632521081 29.716052951012653 O 0.0 **** -0.82
12392 H 24.885610247494625 30.06124262804196 29.629484486714535 H 0.0 **** 0.41
12393 H 26.22343341541658 29.110007814879904 29.092595667479458 H 0.0 **** 0.41
12394 O 27.267131510298547 10.788871408401079 38.80874313065585 O 0.0 **** -0.82
12395 H 26.780097649816405 11.66232241919544 38.8526466348362 H 0.0 **** 0.41
12396 H 27.955157530235095 10.871941079693974 38.07877247560708 H 0.0 **** 0.41
12397 O 34.44989371219948 2.9010938040882857 6.178646632664375 O 0.0 **** -0.82
12398 H 33.98392324386277 1.989532856018816 6.204728054999563 H 0.0 **** 0.41
12399 H 35.38489982999179 2.647134122716502 5.894687118444807 H 0.0 **** 0.41
12400 O 4.561350310107375 16.530570794390627 35.701776783800454 O 0.0 **** -0.82
12401 H 4.382212947648579 15.504521522063124 35.75718269540268 H 0.0 **** 0.41
12402 H 5.1224579547294615 16.813249485690626 36.52876620762575 H 0.0 **** 0.41
12403 O 31.226039193927008 20.178201205044424 36.19069681129212 O 0.0 **** -0.82
12404 H 32.124353824067704 19.761187874768318 35.976499205609244 H 0.0 **** 0.41
12405 H 30.52952986334194 19.68404865533868 35.557614503703164 H 0.0 **** 0.41
12406 O 16.605331179812154 15.259522510394419 6.383844780816155 O 0.0 **** -0.82
12407 H 15.68510578525847 15.003116748427132 6.621567877163699 H 0.0 **** 0.41
12408 H 17.05381977582641 14.311732748739665 6.3326164327989005 H 0.0 **** 0.41
12409 O 23.109183031315137 37.18986695438743 38.87422578228276 O 0.0 **** -0.82
12410 H 22.68283737908123 36.785258631506835 39.700288112982854 H 0.0 **** 0.41
12411 H 22.771410484653124 36.73145676628686 38.05111519727996 H 0.0 **** 0.41
12412 O 29.97121662969397 39.84839019941505 29.730649736520892 O 0.0 **** -0.82
12413 H 29.398280124232045 40.26101233516737 28.997171338257647 H 0.0 **** 0.41
12414 H 30.486106853242234 39.03051085201363 29.305584588533762 H 0.0 **** 0.41
12415 O 30.667083207242747 35.17550851978378 11.610215692809575 O 0.0 **** -0.82
12416 H 30.05389026862856 35.97682547313546 11.657077791824896 H 0.0 **** 0.41
12417 H 30.962207596145326 34.93857302452304 12.511270549467994 H 0.0 **** 0.41
12418 O 47.32356396561629 49.33992973542203 12.649166263399795 O 0.0 **** -0.82
12419 H 47.08296259941428 48.622283311466326 13.386680146208036 H 0.0 **** 0.41
12420 H 48.03348639436538 49.85133560015704 13.198068807697009 H 0.0 **** 0.41
12421 O 28.95301865936851 12.895867621141527 26.794541670811178 O 0.0 **** -0.82
12422 H 28.43127787904088 12.112038753159922 27.216760538091243 H 0.0 **** 0.41
12423 H 28.19005920982093 13.48455907968949 26.387424108687153 H 0.0 **** 0.41
12424 O 19.426052346369175 31.120543245503626 16.230967959547158 O 0.0 **** -0.82
12425 H 19.421720725672927 30.430640522777896 16.959671782844232 H 0.0 **** 0.41
12426 H 19.454716236256303 32.00655194101983 16.71585666585962 H 0.0 **** 0.41
12427 O 20.066318564637246 49.09136713579808 9.571633530038547 O 0.0 **** -0.82
12428 H 20.779516569809203 48.37001881114704 9.426311507623993 H 0.0 **** 0.41
12429 H 19.22328508016077 48.844372012204786 9.064933441880713 H 0.0 **** 0.41
12430 O 43.56911564679224 31.909455110176125 40.248687910159234 O 0.0 **** -0.82
12431 H 43.81072732150393 32.89466286908975 40.29903179374186 H 0.0 **** 0.41
12432 H 42.58578097754003 32.06552742746408 40.51491097063926 H 0.0 **** 0.41
12433 O 10.789452879251359 25.421113416663804 26.981850523561008 O 0.0 **** -0.82
12434 H 10.640466417609064 25.727000682460393 25.95835901235716 H 0.0 **** 0.41
12435 H 11.259679560286903 24.504694950442644 26.973384795072565 H 0.0 **** 0.41
12436 O 17.663997501663204 40.885328760828436 31.825196148537923 O 0.0 **** -0.82
12437 H 17.083243819085055 40.60770138924891 31.036853863083262 H 0.0 **** 0.41
12438 H 17.040669230730245 40.97110526796347 32.63862419426943 H 0.0 **** 0.41
12439 O 7.8238604970640395 44.29904699497723 6.64390404339418 O 0.0 **** -0.82
12440 H 7.375725638036201 43.978179140262526 5.821510638478983 H 0.0 **** 0.41
12441 H 8.791680496705467 43.978308652078 6.474589997531609 H 0.0 **** 0.41
12442 O 27.934685469232125 3.112598534193722 5.931299209333687 O 0.0 **** -0.82
12443 H 28.298032674024522 2.952877356424886 6.881232531385805 H 0.0 **** 0.41
12444 H 28.35176446244497 2.5121125903572614 5.23841406293861 H 0.0 **** 0.41
12445 O 14.751502078907604 29.09410756168774 13.60358360017207 O 0.0 **** -0.82
12446 H 14.548884382741562 29.916552048052786 14.163103257523684 H 0.0 **** 0.41
12447 H 13.793002729494626 28.786241496200315 13.343413218873971 H 0.0 **** 0.41
12448 O 38.437899685757884 43.446499767166245 29.989611551608238 O 0.0 **** -0.82
12449 H 38.54428966498288 43.26628808091606 29.02579188115831 H 0.0 **** 0.41
12450 H 37.5694216295571 42.956276269945434 30.131517336924695 H 0.0 **** 0.41
12451 O 1.9047512401875626 23.25277630423598 16.869765013284372 O 0.0 **** -0.82
12452 H 2.5330453316501425 22.871045658605553 16.179852280803615 H 0.0 **** 0.41
12453 H 1.1225595020204413 23.75264275578104 16.43464053220366 H 0.0 **** 0.41
12454 O 39.800792457753566 33.29240720191463 6.862346002360367 O 0.0 **** -0.82
12455 H 40.62737412289667 33.62072341752689 6.411698624959131 H 0.0 **** 0.41
12456 H 39.92752373494835 32.34436596261097 7.078426170736722 H 0.0 **** 0.41
12457 O 28.57324312566763 34.22112113888405 13.82855274736611 O 0.0 **** -0.82
12458 H 27.961319781453 34.00520657116158 14.620520049646117 H 0.0 **** 0.41
12459 H 28.98588286512978 35.16483914445388 13.89235734538979 H 0.0 **** 0.41
12460 O 30.826470393114562 26.800988422845915 7.506073481477657 O 0.0 **** -0.82
12461 H 31.756121977818793 27.06475666145496 7.852384510175348 H 0.0 **** 0.41
12462 H 30.832915427794987 25.819403303113578 7.415731897620745 H 0.0 **** 0.41
12463 O 14.379567446083243 35.07996906482389 14.337875919662068 O 0.0 **** -0.82
12464 H 13.731515770932631 35.66307616020135 13.836681831064936 H 0.0 **** 0.41
12465 H 15.234106426147363 35.24309242760281 13.811696380795851 H 0.0 **** 0.41
12466 O 0.5607669704495919 36.38403238137008 0.9632136429237828 O 0.0 **** -0.82
12467 H -0.3999475019361327 36.31274487816057 1.2904477729012354 H 0.0 **** 0.41
12468 H 0.6079646860890264 37.35997870103776 0.9619553444919885 H 0.0 **** 0.41
12469 O 46.82725371432877 6.392350379812899 3.979526425854047 O 0.0 **** -0.82
12470 H 47.036827283904834 5.699063627240817 4.6615018508223045 H 0.0 **** 0.41
12471 H 46.22535861979783 5.886242234517123 3.328819431548574 H 0.0 **** 0.41
12472 O 43.129911916475066 23.26402994587212 3.2651657558277805 O 0.0 **** -0.82
12473 H 43.7181246534133 22.408930640033475 3.2401332056842023 H 0.0 **** 0.41
12474 H 43.76578295525282 23.9648226240533 2.8781012958080083 H 0.0 **** 0.41
12475 O 3.398373915443525 45.521647021802835 18.60095439629534 O 0.0 **** -0.82
12476 H 4.146280968876186 46.22637675201095 18.467334318054682 H 0.0 **** 0.41
12477 H 2.881910142478491 45.50734704168079 17.671350692442775 H 0.0 **** 0.41
12478 O 15.247437741965808 22.674767583995507 8.639755010397906 O 0.0 **** -0.82
12479 H 15.148349622398287 23.682288995958473 8.434088402267683 H 0.0 **** 0.41
12480 H 15.753429787522979 22.286038935705054 7.869346499055808 H 0.0 **** 0.41
12481 O 30.189596996558123 25.300317476580542 36.55057075810726 O 0.0 **** -0.82
12482 H 31.14896178273321 25.15313963795871 36.50364758527621 H 0.0 **** 0.41
12483 H 29.852842227695888 25.448128557987374 37.522426212556496 H 0.0 **** 0.41
12484 O 48.89057918281563 43.25011309538799 24.73310147450714 O 0.0 **** -0.82
12485 H 48.08887140406845 43.87607111943734 24.908959624906824 H 0.0 **** 0.41
12486 H 48.48194486700393 42.35123764245022 24.55103841208184 H 0.0 **** 0.41
12487 O 43.64119830348559 5.062914864113513 46.0075563777255 O 0.0 **** -0.82
12488 H 43.543743955436256 4.582022900299834 46.88316072162523 H 0.0 **** 0.41
12489 H 43.94759378386096 4.390313780799272 45.338288615669995 H 0.0 **** 0.41
12490 O 7.504562323894307 48.370177670263615 5.735094588581036 O 0.0 **** -0.82
12491 H 8.378182402306724 48.63194316364874 5.412547839579431 H 0.0 **** 0.41
12492 H 7.804380322930385 47.57088728075187 6.432188921654558 H 0.0 **** 0.41
12493 O 34.05628643415775 12.55370931608816 32.81142228513069 O 0.0 **** -0.82
12494 H 33.74955378456295 12.802520808459455 31.848799407458102 H 0.0 **** 0.41
12495 H 34.62716197328311 11.70804511372743 32.83476940787777 H 0.0 **** 0.41
12496 O 13.77818346315805 17.298984348079333 0.0374576107967169 O 0.0 **** -0.82
12497 H 12.982356792677564 16.77270528317445 -0.18843425742677056 H 0.0 **** 0.41
12498 H 13.503660428674607 18.18538221503424 0.3195781683530082 H 0.0 **** 0.41
12499 O 13.581938075126681 14.283600004486061 17.306149947582327 O 0.0 **** -0.82
12500 H 14.274215819425091 14.166219644316683 18.010244349322946 H 0.0 **** 0.41
12501 H 13.369582571825822 13.360882428243947 16.994503476046717 H 0.0 **** 0.41
12502 O 27.75040083764083 44.49386226348505 8.143355303264398 O 0.0 **** -0.82
12503 H 28.354355995473497 45.16454030745995 8.661335352563832 H 0.0 **** 0.41
12504 H 28.192037207932195 44.34085576824321 7.240396154226748 H 0.0 **** 0.41
12505 O 24.120013103097605 13.225347379398778 5.585013275429767 O 0.0 **** -0.82
12506 H 23.5723167928888 12.30966205834166 5.3714669797027135 H 0.0 **** 0.41
12507 H 24.913581065121633 13.267538001798366 4.949980929913233 H 0.0 **** 0.41
12508 O 7.365026625303733 28.317915761052877 45.42054076226999 O 0.0 **** -0.82
12509 H 7.712923583783125 28.94150324665877 46.129741852057755 H 0.0 **** 0.41
12510 H 6.809731724608173 28.957979018517147 44.86483947126542 H 0.0 **** 0.41
12511 O 8.181036332622186 27.05240975900714 1.6352717995547223 O 0.0 **** -0.82
12512 H 9.172428716102178 27.32561109230651 1.805698847653666 H 0.0 **** 0.41
12513 H 7.92667356139766 27.512468171359444 0.7595906971960602 H 0.0 **** 0.41
12514 O 5.5160323658545 6.91109915758139 39.02390392991023 O 0.0 **** -0.82
12515 H 6.069439389193441 7.6400584407255465 38.56483211358783 H 0.0 **** 0.41
12516 H 4.98652261309573 6.353364667866579 38.33912050655034 H 0.0 **** 0.41
12517 O 16.905609952577393 5.080514188923993 39.31294707087029 O 0.0 **** -0.82
12518 H 16.42822435011408 5.946284602795575 39.681809929681584 H 0.0 **** 0.41
12519 H 17.104810958692056 5.2862698075553425 38.34269930302518 H 0.0 **** 0.41
12520 O 42.64298452908166 48.39319314874913 43.0586986108343 O 0.0 **** -0.82
12521 H 42.57238112729627 48.060916273673236 42.08472718940208 H 0.0 **** 0.41
12522 H 42.45990024844732 49.41487402340485 43.00697493741992 H 0.0 **** 0.41
12523 O 13.806938381493666 31.21920907400207 20.588760905286154 O 0.0 **** -0.82
12524 H 13.015015941458763 30.59740342520395 20.72115198397941 H 0.0 **** 0.41
12525 H 13.431904397723429 31.968208445115852 19.99376602652795 H 0.0 **** 0.41
12526 O 35.04641594487819 36.31234056298013 34.589691650725726 O 0.0 **** -0.82
12527 H 35.320939960162285 35.70059983139876 33.81480262040628 H 0.0 **** 0.41
12528 H 35.918040394705244 36.72310070477734 34.98284461337294 H 0.0 **** 0.41
12529 O 26.354721187128934 7.428728610620772 45.69573740019317 O 0.0 **** -0.82
12530 H 26.660226127390448 7.715700651882589 46.610791666701886 H 0.0 **** 0.41
12531 H 26.59635294337094 6.466664349140584 45.79216238750533 H 0.0 **** 0.41
12532 O 29.217992888200396 16.45531261546316 15.269389737204891 O 0.0 **** -0.82
12533 H 29.43184759410057 15.643605731542811 14.73951605841443 H 0.0 **** 0.41
12534 H 30.110596678909253 16.903846400814178 15.387151516091844 H 0.0 **** 0.41
@<TRIPOS>BOND
1 1 2 1
2 1 3 1
3 4 5 1
4 4 6 1
5 7 8 1
6 7 9 1
7 10 11 1
8 10 12 1
9 13 14 1
10 13 15 1
11 16 17 1
12 16 18 1
13 19 20 1
14 19 21 1
15 22 23 1
16 22 24 1
17 25 26 1
18 25 27 1
19 28 29 1
20 28 30 1
21 31 32 1
22 31 33 1
23 34 35 1
24 34 36 1
25 37 38 1
26 37 39 1
27 40 41 1
28 40 42 1
29 43 44 1
30 43 45 1
31 46 47 1
32 46 48 1
33 49 50 1
34 49 51 1
35 52 53 1
36 52 54 1
37 55 56 1
38 55 57 1
39 58 59 1
40 58 60 1
41 61 62 1
42 61 63 1
43 64 65 1
44 64 66 1
45 67 68 1
46 67 69 1
47 70 71 1
48 70 72 1
49 73 74 1
50 73 75 1
51 76 77 1
52 76 78 1
53 79 80 1
54 79 81 1
55 82 83 1
56 82 84 1
57 85 86 1
58 85 87 1
59 88 89 1
60 88 90 1
61 91 92 1
62 91 93 1
63 94 95 1
64 94 96 1
65 97 98 1
66 97 99 1
67 100 101 1
68 100 102 1
69 103 104 1
70 103 105 1
71 106 107 1
72 106 108 1
73 109 110 1
74 109 111 1
75 112 113 1
76 112 114 1
77 115 116 1
78 115 117 1
79 118 119 1
80 118 120 1
81 121 122 1
82 121 123 1
83 124 125 1
84 124 126 1
85 127 128 1
86 127 129 1
87 130 131 1
88 130 132 1
89 133 134 1
90 133 135 1
91 136 137 1
92 136 138 1
93 139 140 1
94 139 141 1
95 142 143 1
96 142 144 1
97 145 146 1
98 145 147 1
99 148 149 1
100 148 150 1
101 151 152 1
102 151 153 1
103 154 155 1
104 154 156 1
105 157 158 1
106 157 159 1
107 160 161 1
108 160 162 1
109 163 164 1
110 163 165 1
111 166 167 1
112 166 168 1
113 169 170 1
114 169 171 1
115 172 173 1
116 172 174 1
117 175 176 1
118 175 177 1
119 178 179 1
120 178 180 1
121 181 182 1
122 181 183 1
123 184 185 1
124 184 186 1
125 187 188 1
126 187 189 1
127 190 191 1
128 190 192 1
129 193 194 1
130 193 195 1
131 196 197 1
132 196 198 1
133 199 200 1
134 199 201 1
135 202 203 1
136 202 204 1
137 205 206 1
138 205 207 1
139 208 209 1
140 208 210 1
141 211 212 1
142 211 213 1
143 214 215 1
144 214 216 1
145 217 218 1
146 217 219 1
147 220 221 1
148 220 222 1
149 223 224 1
150 223 225 1
151 226 227 1
152 226 228 1
153 229 230 1
154 229 231 1
155 232 233 1
156 232 234 1
157 235 236 1
158 235 237 1
159 238 239 1
160 238 240 1
161 241 242 1
162 241 243 1
163 244 245 1
164 244 246 1
165 247 248 1
166 247 249 1
167 250 251 1
168 250 252 1
169 253 254 1
170 253 255 1
171 256 257 1
172 256 258 1
173 259 260 1
174 259 261 1
175 262 263 1
176 262 264 1
177 265 266 1
178 265 267 1
179 268 269 1
180 268 270 1
181 271 272 1
182 271 273 1
183 274 275 1
184 274 276 1
185 277 278 1
186 277 279 1
187 280 281 1
188 280 282 1
189 283 284 1
190 283 285 1
191 286 287 1
192 286 288 1
193 289 290 1
194 289 291 1
195 292 293 1
196 292 294 1
197 295 296 1
198 295 297 1
199 298 299 1
200 298 300 1
201 301 302 1
202 301 303 1
203 304 305 1
204 304 306 1
205 307 308 1
206 307 309 1
207 310 311 1
208 310 312 1
209 313 314 1
210 313 315 1
211 316 317 1
212 316 318 1
213 319 320 1
214 319 321 1
215 322 323 1
216 322 324 1
217 325 326 1
218 325 327 1
219 328 329 1
220 328 330 1
221 331 332 1
222 331 333 1
223 334 335 1
224 334 336 1
225 337 338 1
226 337 339 1
227 340 341 1
228 340 342 1
229 343 344 1
230 343 345 1
231 346 347 1
232 346 348 1
233 349 350 1
234 349 351 1
235 352 353 1
236 352 354 1
237 355 356 1
238 355 357 1
239 358 359 1
240 358 360 1
241 361 362 1
242 361 363 1
243 364 365 1
244 364 366 1
245 367 368 1
246 367 369 1
247 370 371 1
248 370 372 1
249 373 374 1
250 373 375 1
251 376 377 1
252 376 378 1
253 379 380 1
254 379 381 1
255 382 383 1
256 382 384 1
257 385 386 1
258 385 387 1
259 388 389 1
260 388 390 1
261 391 392 1
262 391 393 1
263 394 395 1
264 394 396 1
265 397 398 1
266 397 399 1
267 400 401 1
268 400 402 1
269 403 404 1
270 403 405 1
271 406 407 1
272 406 408 1
273 409 410 1
274 409 411 1
275 412 413 1
276 412 414 1
277 415 416 1
278 415 417 1
279 418 419 1
280 418 420 1
281 421 422 1
282 421 423 1
283 424 425 1
284 424 426 1
285 427 428 1
286 427 429 1
287 430 431 1
288 430 432 1
289 433 434 1
290 433 435 1
291 436 437 1
292 436 438 1
293 439 440 1
294 439 441 1
295 442 443 1
296 442 444 1
297 445 446 1
298 445 447 1
299 448 449 1
300 448 450 1
301 451 452 1
302 451 453 1
303 454 455 1
304 454 456 1
305 457 458 1
306 457 459 1
307 460 461 1
308 460 462 1
309 463 464 1
310 463 465 1
311 466 467 1
312 466 468 1
313 469 470 1
314 469 471 1
315 472 473 1
316 472 474 1
317 475 476 1
318 475 477 1
319 478 479 1
320 478 480 1
321 481 482 1
322 481 483 1
323 484 485 1
324 484 486 1
325 487 488 1
326 487 489 1
327 490 491 1
328 490 492 1
329 493 494 1
330 493 495 1
331 496 497 1
332 496 498 1
333 499 500 1
334 499 501 1
335 502 503 1
336 502 504 1
337 505 506 1
338 505 507 1
339 508 509 1
340 508 510 1
341 511 512 1
342 511 513 1
343 514 515 1
344 514 516 1
345 517 518 1
346 517 519 1
347 520 521 1
348 520 522 1
349 523 524 1
350 523 525 1
351 526 527 1
352 526 528 1
353 529 530 1
354 529 531 1
355 532 533 1
356 532 534 1
357 535 536 1
358 535 537 1
359 538 539 1
360 538 540 1
361 541 542 1
362 541 543 1
363 544 545 1
364 544 546 1
365 547 548 1
366 547 549 1
367 550 551 1
368 550 552 1
369 553 554 1
370 553 555 1
371 556 557 1
372 556 558 1
373 559 560 1
374 559 561 1
375 562 563 1
376 562 564 1
377 565 566 1
378 565 567 1
379 568 569 1
380 568 570 1
381 571 572 1
382 571 573 1
383 574 575 1
384 574 576 1
385 577 578 1
386 577 579 1
387 580 581 1
388 580 582 1
389 583 584 1
390 583 585 1
391 586 587 1
392 586 588 1
393 589 590 1
394 589 591 1
395 592 593 1
396 592 594 1
397 595 596 1
398 595 597 1
399 598 599 1
400 598 600 1
401 601 602 1
402 601 603 1
403 604 605 1
404 604 606 1
405 607 608 1
406 607 609 1
407 610 611 1
408 610 612 1
409 613 614 1
410 613 615 1
411 616 617 1
412 616 618 1
413 619 620 1
414 619 621 1
415 622 623 1
416 622 624 1
417 625 626 1
418 625 627 1
419 628 629 1
420 628 630 1
421 631 632 1
422 631 633 1
423 634 635 1
424 634 636 1
425 637 638 1
426 637 639 1
427 640 641 1
428 640 642 1
429 643 644 1
430 643 645 1
431 646 647 1
432 646 648 1
433 649 650 1
434 649 651 1
435 652 653 1
436 652 654 1
437 655 656 1
438 655 657 1
439 658 659 1
440 658 660 1
441 661 662 1
442 661 663 1
443 664 665 1
444 664 666 1
445 667 668 1
446 667 669 1
447 670 671 1
448 670 672 1
449 673 674 1
450 673 675 1
451 676 677 1
452 676 678 1
453 679 680 1
454 679 681 1
455 682 683 1
456 682 684 1
457 685 686 1
458 685 687 1
459 688 689 1
460 688 690 1
461 691 692 1
462 691 693 1
463 694 695 1
464 694 696 1
465 697 698 1
466 697 699 1
467 700 701 1
468 700 702 1
469 703 704 1
470 703 705 1
471 706 707 1
472 706 708 1
473 709 710 1
474 709 711 1
475 712 713 1
476 712 714 1
477 715 716 1
478 715 717 1
479 718 719 1
480 718 720 1
481 721 722 1
482 721 723 1
483 724 725 1
484 724 726 1
485 727 728 1
486 727 729 1
487 730 731 1
488 730 732 1
489 733 734 1
490 733 735 1
491 736 737 1
492 736 738 1
493 739 740 1
494 739 741 1
495 742 743 1
496 742 744 1
497 745 746 1
498 745 747 1
499 748 749 1
500 748 750 1
501 751 752 1
502 751 753 1
503 754 755 1
504 754 756 1
505 757 758 1
506 757 759 1
507 760 761 1
508 760 762 1
509 763 764 1
510 763 765 1
511 766 767 1
512 766 768 1
513 769 770 1
514 769 771 1
515 772 773 1
516 772 774 1
517 775 776 1
518 775 777 1
519 778 779 1
520 778 780 1
521 781 782 1
522 781 783 1
523 784 785 1
524 784 786 1
525 787 788 1
526 787 789 1
527 790 791 1
528 790 792 1
529 793 794 1
530 793 795 1
531 796 797 1
532 796 798 1
533 799 800 1
534 799 801 1
535 802 803 1
536 802 804 1
537 805 806 1
538 805 807 1
539 808 809 1
540 808 810 1
541 811 812 1
542 811 813 1
543 814 815 1
544 814 816 1
545 817 818 1
546 817 819 1
547 820 821 1
548 820 822 1
549 823 824 1
550 823 825 1
551 826 827 1
552 826 828 1
553 829 830 1
554 829 831 1
555 832 833 1
556 832 834 1
557 835 836 1
558 835 837 1
559 838 839 1
560 838 840 1
561 841 842 1
562 841 843 1
563 844 845 1
564 844 846 1
565 847 848 1
566 847 849 1
567 850 851 1
568 850 852 1
569 853 854 1
570 853 855 1
571 856 857 1
572 856 858 1
573 859 860 1
574 859 861 1
575 862 863 1
576 862 864 1
577 865 866 1
578 865 867 1
579 868 869 1
580 868 870 1
581 871 872 1
582 871 873 1
583 874 875 1
584 874 876 1
585 877 878 1
586 877 879 1
587 880 881 1
588 880 882 1
589 883 884 1
590 883 885 1
591 886 887 1
592 886 888 1
593 889 890 1
594 889 891 1
595 892 893 1
596 892 894 1
597 895 896 1
598 895 897 1
599 898 899 1
600 898 900 1
601 901 902 1
602 901 903 1
603 904 905 1
604 904 906 1
605 907 908 1
606 907 909 1
607 910 911 1
608 910 912 1
609 913 914 1
610 913 915 1
611 916 917 1
612 916 918 1
613 919 920 1
614 919 921 1
615 922 923 1
616 922 924 1
617 925 926 1
618 925 927 1
619 928 929 1
620 928 930 1
621 931 932 1
622 931 933 1
623 934 935 1
624 934 936 1
625 937 938 1
626 937 939 1
627 940 941 1
628 940 942 1
629 943 944 1
630 943 945 1
631 946 947 1
632 946 948 1
633 949 950 1
634 949 951 1
635 952 953 1
636 952 954 1
637 955 956 1
638 955 957 1
639 958 959 1
640 958 960 1
641 961 962 1
642 961 963 1
643 964 965 1
644 964 966 1
645 967 968 1
646 967 969 1
647 970 971 1
648 970 972 1
649 973 974 1
650 973 975 1
651 976 977 1
652 976 978 1
653 979 980 1
654 979 981 1
655 982 983 1
656 982 984 1
657 985 986 1
658 985 987 1
659 988 989 1
660 988 990 1
661 991 992 1
662 991 993 1
663 994 995 1
664 994 996 1
665 997 998 1
666 997 999 1
667 1000 1001 1
668 1000 1002 1
669 1003 1004 1
670 1003 1005 1
671 1006 1007 1
672 1006 1008 1
673 1009 1010 1
674 1009 1011 1
675 1012 1013 1
676 1012 1014 1
677 1015 1016 1
678 1015 1017 1
679 1018 1019 1
680 1018 1020 1
681 1021 1022 1
682 1021 1023 1
683 1024 1025 1
684 1024 1026 1
685 1027 1028 1
686 1027 1029 1
687 1030 1031 1
688 1030 1032 1
689 1033 1034 1
690 1033 1035 1
691 1036 1037 1
692 1036 1038 1
693 1039 1040 1
694 1039 1041 1
695 1042 1043 1
696 1042 1044 1
697 1045 1046 1
698 1045 1047 1
699 1048 1049 1
700 1048 1050 1
701 1051 1052 1
702 1051 1053 1
703 1054 1055 1
704 1054 1056 1
705 1057 1058 1
706 1057 1059 1
707 1060 1061 1
708 1060 1062 1
709 1063 1064 1
710 1063 1065 1
711 1066 1067 1
712 1066 1068 1
713 1069 1070 1
714 1069 1071 1
715 1072 1073 1
716 1072 1074 1
717 1075 1076 1
718 1075 1077 1
719 1078 1079 1
720 1078 1080 1
721 1081 1082 1
722 1081 1083 1
723 1084 1085 1
724 1084 1086 1
725 1087 1088 1
726 1087 1089 1
727 1090 1091 1
728 1090 1092 1
729 1093 1094 1
730 1093 1095 1
731 1096 1097 1
732 1096 1098 1
733 1099 1100 1
734 1099 1101 1
735 1102 1103 1
736 1102 1104 1
737 1105 1106 1
738 1105 1107 1
739 1108 1109 1
740 1108 1110 1
741 1111 1112 1
742 1111 1113 1
743 1114 1115 1
744 1114 1116 1
745 1117 1118 1
746 1117 1119 1
747 1120 1121 1
748 1120 1122 1
749 1123 1124 1
750 1123 1125 1
751 1126 1127 1
752 1126 1128 1
753 1129 1130 1
754 1129 1131 1
755 1132 1133 1
756 1132 1134 1
757 1135 1136 1
758 1135 1137 1
759 1138 1139 1
760 1138 1140 1
761 1141 1142 1
762 1141 1143 1
763 1144 1145 1
764 1144 1146 1
765 1147 1148 1
766 1147 1149 1
767 1150 1151 1
768 1150 1152 1
769 1153 1154 1
770 1153 1155 1
771 1156 1157 1
772 1156 1158 1
773 1159 1160 1
774 1159 1161 1
775 1162 1163 1
776 1162 1164 1
777 1165 1166 1
778 1165 1167 1
779 1168 1169 1
780 1168 1170 1
781 1171 1172 1
782 1171 1173 1
783 1174 1175 1
784 1174 1176 1
785 1177 1178 1
786 1177 1179 1
787 1180 1181 1
788 1180 1182 1
789 1183 1184 1
790 1183 1185 1
791 1186 1187 1
792 1186 1188 1
793 1189 1190 1
794 1189 1191 1
795 1192 1193 1
796 1192 1194 1
797 1195 1196 1
798 1195 1197 1
799 1198 1199 1
800 1198 1200 1
801 1201 1202 1
802 1201 1203 1
803 1204 1205 1
804 1204 1206 1
805 1207 1208 1
806 1207 1209 1
807 1210 1211 1
808 1210 1212 1
809 1213 1214 1
810 1213 1215 1
811 1216 1217 1
812 1216 1218 1
813 1219 1220 1
814 1219 1221 1
815 1222 1223 1
816 1222 1224 1
817 1225 1226 1
818 1225 1227 1
819 1228 1229 1
820 1228 1230 1
821 1231 1232 1
822 1231 1233 1
823 1234 1235 1
824 1234 1236 1
825 1237 1238 1
826 1237 1239 1
827 1240 1241 1
828 1240 1242 1
829 1243 1244 1
830 1243 1245 1
831 1246 1247 1
832 1246 1248 1
833 1249 1250 1
834 1249 1251 1
835 1252 1253 1
836 1252 1254 1
837 1255 1256 1
838 1255 1257 1
839 1258 1259 1
840 1258 1260 1
841 1261 1262 1
842 1261 1263 1
843 1264 1265 1
844 1264 1266 1
845 1267 1268 1
846 1267 1269 1
847 1270 1271 1
848 1270 1272 1
849 1273 1274 1
850 1273 1275 1
851 1276 1277 1
852 1276 1278 1
853 1279 1280 1
854 1279 1281 1
855 1282 1283 1
856 1282 1284 1
857 1285 1286 1
858 1285 1287 1
859 1288 1289 1
860 1288 1290 1
861 1291 1292 1
862 1291 1293 1
863 1294 1295 1
864 1294 1296 1
865 1297 1298 1
866 1297 1299 1
867 1300 1301 1
868 1300 1302 1
869 1303 1304 1
870 1303 1305 1
871 1306 1307 1
872 1306 1308 1
873 1309 1310 1
874 1309 1311 1
875 1312 1313 1
876 1312 1314 1
877 1315 1316 1
878 1315 1317 1
879 1318 1319 1
880 1318 1320 1
881 1321 1322 1
882 1321 1323 1
883 1324 1325 1
884 1324 1326 1
885 1327 1328 1
886 1327 1329 1
887 1330 1331 1
888 1330 1332 1
889 1333 1334 1
890 1333 1335 1
891 1336 1337 1
892 1336 1338 1
893 1339 1340 1
894 1339 1341 1
895 1342 1343 1
896 1342 1344 1
897 1345 1346 1
898 1345 1347 1
899 1348 1349 1
900 1348 1350 1
901 1351 1352 1
902 1351 1353 1
903 1354 1355 1
904 1354 1356 1
905 1357 1358 1
906 1357 1359 1
907 1360 1361 1
908 1360 1362 1
909 1363 1364 1
910 1363 1365 1
911 1366 1367 1
912 1366 1368 1
913 1369 1370 1
914 1369 1371 1
915 1372 1373 1
916 1372 1374 1
917 1375 1376 1
918 1375 1377 1
919 1378 1379 1
920 1378 1380 1
921 1381 1382 1
922 1381 1383 1
923 1384 1385 1
924 1384 1386 1
925 1387 1388 1
926 1387 1389 1
927 1390 1391 1
928 1390 1392 1
929 1393 1394 1
930 1393 1395 1
931 1396 1397 1
932 1396 1398 1
933 1399 1400 1
934 1399 1401 1
935 1402 1403 1
936 1402 1404 1
937 1405 1406 1
938 1405 1407 1
939 1408 1409 1
940 1408 1410 1
941 1411 1412 1
942 1411 1413 1
943 1414 1415 1
944 1414 1416 1
945 1417 1418 1
946 1417 1419 1
947 1420 1421 1
948 1420 1422 1
949 1423 1424 1
950 1423 1425 1
951 1426 1427 1
952 1426 1428 1
953 1429 1430 1
954 1429 1431 1
955 1432 1433 1
956 1432 1434 1
957 1435 1436 1
958 1435 1437 1
959 1438 1439 1
960 1438 1440 1
961 1441 1442 1
962 1441 1443 1
963 1444 1445 1
964 1444 1446 1
965 1447 1448 1
966 1447 1449 1
967 1450 1451 1
968 1450 1452 1
969 1453 1454 1
970 1453 1455 1
971 1456 1457 1
972 1456 1458 1
973 1459 1460 1
974 1459 1461 1
975 1462 1463 1
976 1462 1464 1
977 1465 1466 1
978 1465 1467 1
979 1468 1469 1
980 1468 1470 1
981 1471 1472 1
982 1471 1473 1
983 1474 1475 1
984 1474 1476 1
985 1477 1478 1
986 1477 1479 1
987 1480 1481 1
988 1480 1482 1
989 1483 1484 1
990 1483 1485 1
991 1486 1487 1
992 1486 1488 1
993 1489 1490 1
994 1489 1491 1
995 1492 1493 1
996 1492 1494 1
997 1495 1496 1
998 1495 1497 1
999 1498 1499 1
1000 1498 1500 1
1001 1501 1502 1
1002 1501 1503 1
1003 1504 1505 1
1004 1504 1506 1
1005 1507 1508 1
1006 1507 1509 1
1007 1510 1511 1
1008 1510 1512 1
1009 1513 1514 1
1010 1513 1515 1
1011 1516 1517 1
1012 1516 1518 1
1013 1519 1520 1
1014 1519 1521 1
1015 1522 1523 1
1016 1522 1524 1
1017 1525 1526 1
1018 1525 1527 1
1019 1528 1529 1
1020 1528 1530 1
1021 1531 1532 1
1022 1531 1533 1
1023 1534 1535 1
1024 1534 1536 1
1025 1537 1538 1
1026 1537 1539 1
1027 1540 1541 1
1028 1540 1542 1
1029 1543 1544 1
1030 1543 1545 1
1031 1546 1547 1
1032 1546 1548 1
1033 1549 1550 1
1034 1549 1551 1
1035 1552 1553 1
1036 1552 1554 1
1037 1555 1556 1
1038 1555 1557 1
1039 1558 1559 1
1040 1558 1560 1
1041 1561 1562 1
1042 1561 1563 1
1043 1564 1565 1
1044 1564 1566 1
1045 1567 1568 1
1046 1567 1569 1
1047 1570 1571 1
1048 1570 1572 1
1049 1573 1574 1
1050 1573 1575 1
1051 1576 1577 1
1052 1576 1578 1
1053 1579 1580 1
1054 1579 1581 1
1055 1582 1583 1
1056 1582 1584 1
1057 1585 1586 1
1058 1585 1587 1
1059 1588 1589 1
1060 1588 1590 1
1061 1591 1592 1
1062 1591 1593 1
1063 1594 1595 1
1064 1594 1596 1
1065 1597 1598 1
1066 1597 1599 1
1067 1600 1601 1
1068 1600 1602 1
1069 1603 1604 1
1070 1603 1605 1
1071 1606 1607 1
1072 1606 1608 1
1073 1609 1610 1
1074 1609 1611 1
1075 1612 1613 1
1076 1612 1614 1
1077 1615 1616 1
1078 1615 1617 1
1079 1618 1619 1
1080 1618 1620 1
1081 1621 1622 1
1082 1621 1623 1
1083 1624 1625 1
1084 1624 1626 1
1085 1627 1628 1
1086 1627 1629 1
1087 1630 1631 1
1088 1630 1632 1
1089 1633 1634 1
1090 1633 1635 1
1091 1636 1637 1
1092 1636 1638 1
1093 1639 1640 1
1094 1639 1641 1
1095 1642 1643 1
1096 1642 1644 1
1097 1645 1646 1
1098 1645 1647 1
1099 1648 1649 1
1100 1648 1650 1
1101 1651 1652 1
1102 1651 1653 1
1103 1654 1655 1
1104 1654 1656 1
1105 1657 1658 1
1106 1657 1659 1
1107 1660 1661 1
1108 1660 1662 1
1109 1663 1664 1
1110 1663 1665 1
1111 1666 1667 1
1112 1666 1668 1
1113 1669 1670 1
1114 1669 1671 1
1115 1672 1673 1
1116 1672 1674 1
1117 1675 1676 1
1118 1675 1677 1
1119 1678 1679 1
1120 1678 1680 1
1121 1681 1682 1
1122 1681 1683 1
1123 1684 1685 1
1124 1684 1686 1
1125 1687 1688 1
1126 1687 1689 1
1127 1690 1691 1
1128 1690 1692 1
1129 1693 1694 1
1130 1693 1695 1
1131 1696 1697 1
1132 1696 1698 1
1133 1699 1700 1
1134 1699 1701 1
1135 1702 1703 1
1136 1702 1704 1
1137 1705 1706 1
1138 1705 1707 1
1139 1708 1709 1
1140 1708 1710 1
1141 1711 1712 1
1142 1711 1713 1
1143 1714 1715 1
1144 1714 1716 1
1145 1717 1718 1
1146 1717 1719 1
1147 1720 1721 1
1148 1720 1722 1
1149 1723 1724 1
1150 1723 1725 1
1151 1726 1727 1
1152 1726 1728 1
1153 1729 1730 1
1154 1729 1731 1
1155 1732 1733 1
1156 1732 1734 1
1157 1735 1736 1
1158 1735 1737 1
1159 1738 1739 1
1160 1738 1740 1
1161 1741 1742 1
1162 1741 1743 1
1163 1744 1745 1
1164 1744 1746 1
1165 1747 1748 1
1166 1747 1749 1
1167 1750 1751 1
1168 1750 1752 1
1169 1753 1754 1
1170 1753 1755 1
1171 1756 1757 1
1172 1756 1758 1
1173 1759 1760 1
1174 1759 1761 1
1175 1762 1763 1
1176 1762 1764 1
1177 1765 1766 1
1178 1765 1767 1
1179 1768 1769 1
1180 1768 1770 1
1181 1771 1772 1
1182 1771 1773 1
1183 1774 1775 1
1184 1774 1776 1
1185 1777 1778 1
1186 1777 1779 1
1187 1780 1781 1
1188 1780 1782 1
1189 1783 1784 1
1190 1783 1785 1
1191 1786 1787 1
1192 1786 1788 1
1193 1789 1790 1
1194 1789 1791 1
1195 1792 1793 1
1196 1792 1794 1
1197 1795 1796 1
1198 1795 1797 1
1199 1798 1799 1
1200 1798 1800 1
1201 1801 1802 1
1202 1801 1803 1
1203 1804 1805 1
1204 1804 1806 1
1205 1807 1808 1
1206 1807 1809 1
1207 1810 1811 1
1208 1810 1812 1
1209 1813 1814 1
1210 1813 1815 1
1211 1816 1817 1
1212 1816 1818 1
1213 1819 1820 1
1214 1819 1821 1
1215 1822 1823 1
1216 1822 1824 1
1217 1825 1826 1
1218 1825 1827 1
1219 1828 1829 1
1220 1828 1830 1
1221 1831 1832 1
1222 1831 1833 1
1223 1834 1835 1
1224 1834 1836 1
1225 1837 1838 1
1226 1837 1839 1
1227 1840 1841 1
1228 1840 1842 1
1229 1843 1844 1
1230 1843 1845 1
1231 1846 1847 1
1232 1846 1848 1
1233 1849 1850 1
1234 1849 1851 1
1235 1852 1853 1
1236 1852 1854 1
1237 1855 1856 1
1238 1855 1857 1
1239 1858 1859 1
1240 1858 1860 1
1241 1861 1862 1
1242 1861 1863 1
1243 1864 1865 1
1244 1864 1866 1
1245 1867 1868 1
1246 1867 1869 1
1247 1870 1871 1
1248 1870 1872 1
1249 1873 1874 1
1250 1873 1875 1
1251 1876 1877 1
1252 1876 1878 1
1253 1879 1880 1
1254 1879 1881 1
1255 1882 1883 1
1256 1882 1884 1
1257 1885 1886 1
1258 1885 1887 1
1259 1888 1889 1
1260 1888 1890 1
1261 1891 1892 1
1262 1891 1893 1
1263 1894 1895 1
1264 1894 1896 1
1265 1897 1898 1
1266 1897 1899 1
1267 1900 1901 1
1268 1900 1902 1
1269 1903 1904 1
1270 1903 1905 1
1271 1906 1907 1
1272 1906 1908 1
1273 1909 1910 1
1274 1909 1911 1
1275 1912 1913 1
1276 1912 1914 1
1277 1915 1916 1
1278 1915 1917 1
1279 1918 1919 1
1280 1918 1920 1
1281 1921 1922 1
1282 1921 1923 1
1283 1924 1925 1
1284 1924 1926 1
1285 1927 1928 1
1286 1927 1929 1
1287 1930 1931 1
1288 1930 1932 1
1289 1933 1934 1
1290 1933 1935 1
1291 1936 1937 1
1292 1936 1938 1
1293 1939 1940 1
1294 1939 1941 1
1295 1942 1943 1
1296 1942 1944 1
1297 1945 1946 1
1298 1945 1947 1
1299 1948 1949 1
1300 1948 1950 1
1301 1951 1952 1
1302 1951 1953 1
1303 1954 1955 1
1304 1954 1956 1
1305 1957 1958 1
1306 1957 1959 1
1307 1960 1961 1
1308 1960 1962 1
1309 1963 1964 1
1310 1963 1965 1
1311 1966 1967 1
1312 1966 1968 1
1313 1969 1970 1
1314 1969 1971 1
1315 1972 1973 1
1316 1972 1974 1
1317 1975 1976 1
1318 1975 1977 1
1319 1978 1979 1
1320 1978 1980 1
1321 1981 1982 1
1322 1981 1983 1
1323 1984 1985 1
1324 1984 1986 1
1325 1987 1988 1
1326 1987 1989 1
1327 1990 1991 1
1328 1990 1992 1
1329 1993 1994 1
1330 1993 1995 1
1331 1996 1997 1
1332 1996 1998 1
1333 1999 2000 1
1334 1999 2001 1
1335 2002 2003 1
1336 2002 2004 1
1337 2005 2006 1
1338 2005 2007 1
1339 2008 2009 1
1340 2008 2010 1
1341 2011 2012 1
1342 2011 2013 1
1343 2014 2015 1
1344 2014 2016 1
1345 2017 2018 1
1346 2017 2019 1
1347 2020 2021 1
1348 2020 2022 1
1349 2023 2024 1
1350 2023 2025 1
1351 2026 2027 1
1352 2026 2028 1
1353 2029 2030 1
1354 2029 2031 1
1355 2032 2033 1
1356 2032 2034 1
1357 2035 2036 1
1358 2035 2037 1
1359 2038 2039 1
1360 2038 2040 1
1361 2041 2042 1
1362 2041 2043 1
1363 2044 2045 1
1364 2044 2046 1
1365 2047 2048 1
1366 2047 2049 1
1367 2050 2051 1
1368 2050 2052 1
1369 2053 2054 1
1370 2053 2055 1
1371 2056 2057 1
1372 2056 2058 1
1373 2059 2060 1
1374 2059 2061 1
1375 2062 2063 1
1376 2062 2064 1
1377 2065 2066 1
1378 2065 2067 1
1379 2068 2069 1
1380 2068 2070 1
1381 2071 2072 1
1382 2071 2073 1
1383 2074 2075 1
1384 2074 2076 1
1385 2077 2078 1
1386 2077 2079 1
1387 2080 2081 1
1388 2080 2082 1
1389 2083 2084 1
1390 2083 2085 1
1391 2086 2087 1
1392 2086 2088 1
1393 2089 2090 1
1394 2089 2091 1
1395 2092 2093 1
1396 2092 2094 1
1397 2095 2096 1
1398 2095 2097 1
1399 2098 2099 1
1400 2098 2100 1
1401 2101 2102 1
1402 2101 2103 1
1403 2104 2105 1
1404 2104 2106 1
1405 2107 2108 1
1406 2107 2109 1
1407 2110 2111 1
1408 2110 2112 1
1409 2113 2114 1
1410 2113 2115 1
1411 2116 2117 1
1412 2116 2118 1
1413 2119 2120 1
1414 2119 2121 1
1415 2122 2123 1
1416 2122 2124 1
1417 2125 2126 1
1418 2125 2127 1
1419 2128 2129 1
1420 2128 2130 1
1421 2131 2132 1
1422 2131 2133 1
1423 2134 2135 1
1424 2134 2136 1
1425 2137 2138 1
1426 2137 2139 1
1427 2140 2141 1
1428 2140 2142 1
1429 2143 2144 1
1430 2143 2145 1
1431 2146 2147 1
1432 2146 2148 1
1433 2149 2150 1
1434 2149 2151 1
1435 2152 2153 1
1436 2152 2154 1
1437 2155 2156 1
1438 2155 2157 1
1439 2158 2159 1
1440 2158 2160 1
1441 2161 2162 1
1442 2161 2163 1
1443 2164 2165 1
1444 2164 2166 1
1445 2167 2168 1
1446 2167 2169 1
1447 2170 2171 1
1448 2170 2172 1
1449 2173 2174 1
1450 2173 2175 1
1451 2176 2177 1
1452 2176 2178 1
1453 2179 2180 1
1454 2179 2181 1
1455 2182 2183 1
1456 2182 2184 1
1457 2185 2186 1
1458 2185 2187 1
1459 2188 2189 1
1460 2188 2190 1
1461 2191 2192 1
1462 2191 2193 1
1463 2194 2195 1
1464 2194 2196 1
1465 2197 2198 1
1466 2197 2199 1
1467 2200 2201 1
1468 2200 2202 1
1469 2203 2204 1
1470 2203 2205 1
1471 2206 2207 1
1472 2206 2208 1
1473 2209 2210 1
1474 2209 2211 1
1475 2212 2213 1
1476 2212 2214 1
1477 2215 2216 1
1478 2215 2217 1
1479 2218 2219 1
1480 2218 2220 1
1481 2221 2222 1
1482 2221 2223 1
1483 2224 2225 1
1484 2224 2226 1
1485 2227 2228 1
1486 2227 2229 1
1487 2230 2231 1
1488 2230 2232 1
1489 2233 2234 1
1490 2233 2235 1
1491 2236 2237 1
1492 2236 2238 1
1493 2239 2240 1
1494 2239 2241 1
1495 2242 2243 1
1496 2242 2244 1
1497 2245 2246 1
1498 2245 2247 1
1499 2248 2249 1
1500 2248 2250 1
1501 2251 2252 1
1502 2251 2253 1
1503 2254 2255 1
1504 2254 2256 1
1505 2257 2258 1
1506 2257 2259 1
1507 2260 2261 1
1508 2260 2262 1
1509 2263 2264 1
1510 2263 2265 1
1511 2266 2267 1
1512 2266 2268 1
1513 2269 2270 1
1514 2269 2271 1
1515 2272 2273 1
1516 2272 2274 1
1517 2275 2276 1
1518 2275 2277 1
1519 2278 2279 1
1520 2278 2280 1
1521 2281 2282 1
1522 2281 2283 1
1523 2284 2285 1
1524 2284 2286 1
1525 2287 2288 1
1526 2287 2289 1
1527 2290 2291 1
1528 2290 2292 1
1529 2293 2294 1
1530 2293 2295 1
1531 2296 2297 1
1532 2296 2298 1
1533 2299 2300 1
1534 2299 2301 1
1535 2302 2303 1
1536 2302 2304 1
1537 2305 2306 1
1538 2305 2307 1
1539 2308 2309 1
1540 2308 2310 1
1541 2311 2312 1
1542 2311 2313 1
1543 2314 2315 1
1544 2314 2316 1
1545 2317 2318 1
1546 2317 2319 1
1547 2320 2321 1
1548 2320 2322 1
1549 2323 2324 1
1550 2323 2325 1
1551 2326 2327 1
1552 2326 2328 1
1553 2329 2330 1
1554 2329 2331 1
1555 2332 2333 1
1556 2332 2334 1
1557 2335 2336 1
1558 2335 2337 1
1559 2338 2339 1
1560 2338 2340 1
1561 2341 2342 1
1562 2341 2343 1
1563 2344 2345 1
1564 2344 2346 1
1565 2347 2348 1
1566 2347 2349 1
1567 2350 2351 1
1568 2350 2352 1
1569 2353 2354 1
1570 2353 2355 1
1571 2356 2357 1
1572 2356 2358 1
1573 2359 2360 1
1574 2359 2361 1
1575 2362 2363 1
1576 2362 2364 1
1577 2365 2366 1
1578 2365 2367 1
1579 2368 2369 1
1580 2368 2370 1
1581 2371 2372 1
1582 2371 2373 1
1583 2374 2375 1
1584 2374 2376 1
1585 2377 2378 1
1586 2377 2379 1
1587 2380 2381 1
1588 2380 2382 1
1589 2383 2384 1
1590 2383 2385 1
1591 2386 2387 1
1592 2386 2388 1
1593 2389 2390 1
1594 2389 2391 1
1595 2392 2393 1
1596 2392 2394 1
1597 2395 2396 1
1598 2395 2397 1
1599 2398 2399 1
1600 2398 2400 1
1601 2401 2402 1
1602 2401 2403 1
1603 2404 2405 1
1604 2404 2406 1
1605 2407 2408 1
1606 2407 2409 1
1607 2410 2411 1
1608 2410 2412 1
1609 2413 2414 1
1610 2413 2415 1
1611 2416 2417 1
1612 2416 2418 1
1613 2419 2420 1
1614 2419 2421 1
1615 2422 2423 1
1616 2422 2424 1
1617 2425 2426 1
1618 2425 2427 1
1619 2428 2429 1
1620 2428 2430 1
1621 2431 2432 1
1622 2431 2433 1
1623 2434 2435 1
1624 2434 2436 1
1625 2437 2438 1
1626 2437 2439 1
1627 2440 2441 1
1628 2440 2442 1
1629 2443 2444 1
1630 2443 2445 1
1631 2446 2447 1
1632 2446 2448 1
1633 2449 2450 1
1634 2449 2451 1
1635 2452 2453 1
1636 2452 2454 1
1637 2455 2456 1
1638 2455 2457 1
1639 2458 2459 1
1640 2458 2460 1
1641 2461 2462 1
1642 2461 2463 1
1643 2464 2465 1
1644 2464 2466 1
1645 2467 2468 1
1646 2467 2469 1
1647 2470 2471 1
1648 2470 2472 1
1649 2473 2474 1
1650 2473 2475 1
1651 2476 2477 1
1652 2476 2478 1
1653 2479 2480 1
1654 2479 2481 1
1655 2482 2483 1
1656 2482 2484 1
1657 2485 2486 1
1658 2485 2487 1
1659 2488 2489 1
1660 2488 2490 1
1661 2491 2492 1
1662 2491 2493 1
1663 2494 2495 1
1664 2494 2496 1
1665 2497 2498 1
1666 2497 2499 1
1667 2500 2501 1
1668 2500 2502 1
1669 2503 2504 1
1670 2503 2505 1
1671 2506 2507 1
1672 2506 2508 1
1673 2509 2510 1
1674 2509 2511 1
1675 2512 2513 1
1676 2512 2514 1
1677 2515 2516 1
1678 2515 2517 1
1679 2518 2519 1
1680 2518 2520 1
1681 2521 2522 1
1682 2521 2523 1
1683 2524 2525 1
1684 2524 2526 1
1685 2527 2528 1
1686 2527 2529 1
1687 2530 2531 1
1688 2530 2532 1
1689 2533 2534 1
1690 2533 2535 1
1691 2536 2537 1
1692 2536 2538 1
1693 2539 2540 1
1694 2539 2541 1
1695 2542 2543 1
1696 2542 2544 1
1697 2545 2546 1
1698 2545 2547 1
1699 2548 2549 1
1700 2548 2550 1
1701 2551 2552 1
1702 2551 2553 1
1703 2554 2555 1
1704 2554 2556 1
1705 2557 2558 1
1706 2557 2559 1
1707 2560 2561 1
1708 2560 2562 1
1709 2563 2564 1
1710 2563 2565 1
1711 2566 2567 1
1712 2566 2568 1
1713 2569 2570 1
1714 2569 2571 1
1715 2572 2573 1
1716 2572 2574 1
1717 2575 2576 1
1718 2575 2577 1
1719 2578 2579 1
1720 2578 2580 1
1721 2581 2582 1
1722 2581 2583 1
1723 2584 2585 1
1724 2584 2586 1
1725 2587 2588 1
1726 2587 2589 1
1727 2590 2591 1
1728 2590 2592 1
1729 2593 2594 1
1730 2593 2595 1
1731 2596 2597 1
1732 2596 2598 1
1733 2599 2600 1
1734 2599 2601 1
1735 2602 2603 1
1736 2602 2604 1
1737 2605 2606 1
1738 2605 2607 1
1739 2608 2609 1
1740 2608 2610 1
1741 2611 2612 1
1742 2611 2613 1
1743 2614 2615 1
1744 2614 2616 1
1745 2617 2618 1
1746 2617 2619 1
1747 2620 2621 1
1748 2620 2622 1
1749 2623 2624 1
1750 2623 2625 1
1751 2626 2627 1
1752 2626 2628 1
1753 2629 2630 1
1754 2629 2631 1
1755 2632 2633 1
1756 2632 2634 1
1757 2635 2636 1
1758 2635 2637 1
1759 2638 2639 1
1760 2638 2640 1
1761 2641 2642 1
1762 2641 2643 1
1763 2644 2645 1
1764 2644 2646 1
1765 2647 2648 1
1766 2647 2649 1
1767 2650 2651 1
1768 2650 2652 1
1769 2653 2654 1
1770 2653 2655 1
1771 2656 2657 1
1772 2656 2658 1
1773 2659 2660 1
1774 2659 2661 1
1775 2662 2663 1
1776 2662 2664 1
1777 2665 2666 1
1778 2665 2667 1
1779 2668 2669 1
1780 2668 2670 1
1781 2671 2672 1
1782 2671 2673 1
1783 2674 2675 1
1784 2674 2676 1
1785 2677 2678 1
1786 2677 2679 1
1787 2680 2681 1
1788 2680 2682 1
1789 2683 2684 1
1790 2683 2685 1
1791 2686 2687 1
1792 2686 2688 1
1793 2689 2690 1
1794 2689 2691 1
1795 2692 2693 1
1796 2692 2694 1
1797 2695 2696 1
1798 2695 2697 1
1799 2698 2699 1
1800 2698 2700 1
1801 2701 2702 1
1802 2701 2703 1
1803 2704 2705 1
1804 2704 2706 1
1805 2707 2708 1
1806 2707 2709 1
1807 2710 2711 1
1808 2710 2712 1
1809 2713 2714 1
1810 2713 2715 1
1811 2716 2717 1
1812 2716 2718 1
1813 2719 2720 1
1814 2719 2721 1
1815 2722 2723 1
1816 2722 2724 1
1817 2725 2726 1
1818 2725 2727 1
1819 2728 2729 1
1820 2728 2730 1
1821 2731 2732 1
1822 2731 2733 1
1823 2734 2735 1
1824 2734 2736 1
1825 2737 2738 1
1826 2737 2739 1
1827 2740 2741 1
1828 2740 2742 1
1829 2743 2744 1
1830 2743 2745 1
1831 2746 2747 1
1832 2746 2748 1
1833 2749 2750 1
1834 2749 2751 1
1835 2752 2753 1
1836 2752 2754 1
1837 2755 2756 1
1838 2755 2757 1
1839 2758 2759 1
1840 2758 2760 1
1841 2761 2762 1
1842 2761 2763 1
1843 2764 2765 1
1844 2764 2766 1
1845 2767 2768 1
1846 2767 2769 1
1847 2770 2771 1
1848 2770 2772 1
1849 2773 2774 1
1850 2773 2775 1
1851 2776 2777 1
1852 2776 2778 1
1853 2779 2780 1
1854 2779 2781 1
1855 2782 2783 1
1856 2782 2784 1
1857 2785 2786 1
1858 2785 2787 1
1859 2788 2789 1
1860 2788 2790 1
1861 2791 2792 1
1862 2791 2793 1
1863 2794 2795 1
1864 2794 2796 1
1865 2797 2798 1
1866 2797 2799 1
1867 2800 2801 1
1868 2800 2802 1
1869 2803 2804 1
1870 2803 2805 1
1871 2806 2807 1
1872 2806 2808 1
1873 2809 2810 1
1874 2809 2811 1
1875 2812 2813 1
1876 2812 2814 1
1877 2815 2816 1
1878 2815 2817 1
1879 2818 2819 1
1880 2818 2820 1
1881 2821 2822 1
1882 2821 2823 1
1883 2824 2825 1
1884 2824 2826 1
1885 2827 2828 1
1886 2827 2829 1
1887 2830 2831 1
1888 2830 2832 1
1889 2833 2834 1
1890 2833 2835 1
1891 2836 2837 1
1892 2836 2838 1
1893 2839 2840 1
1894 2839 2841 1
1895 2842 2843 1
1896 2842 2844 1
1897 2845 2846 1
1898 2845 2847 1
1899 2848 2849 1
1900 2848 2850 1
1901 2851 2852 1
1902 2851 2853 1
1903 2854 2855 1
1904 2854 2856 1
1905 2857 2858 1
1906 2857 2859 1
1907 2860 2861 1
1908 2860 2862 1
1909 2863 2864 1
1910 2863 2865 1
1911 2866 2867 1
1912 2866 2868 1
1913 2869 2870 1
1914 2869 2871 1
1915 2872 2873 1
1916 2872 2874 1
1917 2875 2876 1
1918 2875 2877 1
1919 2878 2879 1
1920 2878 2880 1
1921 2881 2882 1
1922 2881 2883 1
1923 2884 2885 1
1924 2884 2886 1
1925 2887 2888 1
1926 2887 2889 1
1927 2890 2891 1
1928 2890 2892 1
1929 2893 2894 1
1930 2893 2895 1
1931 2896 2897 1
1932 2896 2898 1
1933 2899 2900 1
1934 2899 2901 1
1935 2902 2903 1
1936 2902 2904 1
1937 2905 2906 1
1938 2905 2907 1
1939 2908 2909 1
1940 2908 2910 1
1941 2911 2912 1
1942 2911 2913 1
1943 2914 2915 1
1944 2914 2916 1
1945 2917 2918 1
1946 2917 2919 1
1947 2920 2921 1
1948 2920 2922 1
1949 2923 2924 1
1950 2923 2925 1
1951 2926 2927 1
1952 2926 2928 1
1953 2929 2930 1
1954 2929 2931 1
1955 2932 2933 1
1956 2932 2934 1
1957 2935 2936 1
1958 2935 2937 1
1959 2938 2939 1
1960 2938 2940 1
1961 2941 2942 1
1962 2941 2943 1
1963 2944 2945 1
1964 2944 2946 1
1965 2947 2948 1
1966 2947 2949 1
1967 2950 2951 1
1968 2950 2952 1
1969 2953 2954 1
1970 2953 2955 1
1971 2956 2957 1
1972 2956 2958 1
1973 2959 2960 1
1974 2959 2961 1
1975 2962 2963 1
1976 2962 2964 1
1977 2965 2966 1
1978 2965 2967 1
1979 2968 2969 1
1980 2968 2970 1
1981 2971 2972 1
1982 2971 2973 1
1983 2974 2975 1
1984 2974 2976 1
1985 2977 2978 1
1986 2977 2979 1
1987 2980 2981 1
1988 2980 2982 1
1989 2983 2984 1
1990 2983 2985 1
1991 2986 2987 1
1992 2986 2988 1
1993 2989 2990 1
1994 2989 2991 1
1995 2992 2993 1
1996 2992 2994 1
1997 2995 2996 1
1998 2995 2997 1
1999 2998 2999 1
2000 2998 3000 1
2001 3001 3002 1
2002 3001 3003 1
2003 3004 3005 1
2004 3004 3006 1
2005 3007 3008 1
2006 3007 3009 1
2007 3010 3011 1
2008 3010 3012 1
2009 3013 3014 1
2010 3013 3015 1
2011 3016 3017 1
2012 3016 3018 1
2013 3019 3020 1
2014 3019 3021 1
2015 3022 3023 1
2016 3022 3024 1
2017 3025 3026 1
2018 3025 3027 1
2019 3028 3029 1
2020 3028 3030 1
2021 3031 3032 1
2022 3031 3033 1
2023 3034 3035 1
2024 3034 3036 1
2025 3037 3038 1
2026 3037 3039 1
2027 3040 3041 1
2028 3040 3042 1
2029 3043 3044 1
2030 3043 3045 1
2031 3046 3047 1
2032 3046 3048 1
2033 3049 3050 1
2034 3049 3051 1
2035 3052 3053 1
2036 3052 3054 1
2037 3055 3056 1
2038 3055 3057 1
2039 3058 3059 1
2040 3058 3060 1
2041 3061 3062 1
2042 3061 3063 1
2043 3064 3065 1
2044 3064 3066 1
2045 3067 3068 1
2046 3067 3069 1
2047 3070 3071 1
2048 3070 3072 1
2049 3073 3074 1
2050 3073 3075 1
2051 3076 3077 1
2052 3076 3078 1
2053 3079 3080 1
2054 3079 3081 1
2055 3082 3083 1
2056 3082 3084 1
2057 3085 3086 1
2058 3085 3087 1
2059 3088 3089 1
2060 3088 3090 1
2061 3091 3092 1
2062 3091 3093 1
2063 3094 3095 1
2064 3094 3096 1
2065 3097 3098 1
2066 3097 3099 1
2067 3100 3101 1
2068 3100 3102 1
2069 3103 3104 1
2070 3103 3105 1
2071 3106 3107 1
2072 3106 3108 1
2073 3109 3110 1
2074 3109 3111 1
2075 3112 3113 1
2076 3112 3114 1
2077 3115 3116 1
2078 3115 3117 1
2079 3118 3119 1
2080 3118 3120 1
2081 3121 3122 1
2082 3121 3123 1
2083 3124 3125 1
2084 3124 3126 1
2085 3127 3128 1
2086 3127 3129 1
2087 3130 3131 1
2088 3130 3132 1
2089 3133 3134 1
2090 3133 3135 1
2091 3136 3137 1
2092 3136 3138 1
2093 3139 3140 1
2094 3139 3141 1
2095 3142 3143 1
2096 3142 3144 1
2097 3145 3146 1
2098 3145 3147 1
2099 3148 3149 1
2100 3148 3150 1
2101 3151 3152 1
2102 3151 3153 1
2103 3154 3155 1
2104 3154 3156 1
2105 3157 3158 1
2106 3157 3159 1
2107 3160 3161 1
2108 3160 3162 1
2109 3163 3164 1
2110 3163 3165 1
2111 3166 3167 1
2112 3166 3168 1
2113 3169 3170 1
2114 3169 3171 1
2115 3172 3173 1
2116 3172 3174 1
2117 3175 3176 1
2118 3175 3177 1
2119 3178 3179 1
2120 3178 3180 1
2121 3181 3182 1
2122 3181 3183 1
2123 3184 3185 1
2124 3184 3186 1
2125 3187 3188 1
2126 3187 3189 1
2127 3190 3191 1
2128 3190 3192 1
2129 3193 3194 1
2130 3193 3195 1
2131 3196 3197 1
2132 3196 3198 1
2133 3199 3200 1
2134 3199 3201 1
2135 3202 3203 1
2136 3202 3204 1
2137 3205 3206 1
2138 3205 3207 1
2139 3208 3209 1
2140 3208 3210 1
2141 3211 3212 1
2142 3211 3213 1
2143 3214 3215 1
2144 3214 3216 1
2145 3217 3218 1
2146 3217 3219 1
2147 3220 3221 1
2148 3220 3222 1
2149 3223 3224 1
2150 3223 3225 1
2151 3226 3227 1
2152 3226 3228 1
2153 3229 3230 1
2154 3229 3231 1
2155 3232 3233 1
2156 3232 3234 1
2157 3235 3236 1
2158 3235 3237 1
2159 3238 3239 1
2160 3238 3240 1
2161 3241 3242 1
2162 3241 3243 1
2163 3244 3245 1
2164 3244 3246 1
2165 3247 3248 1
2166 3247 3249 1
2167 3250 3251 1
2168 3250 3252 1
2169 3253 3254 1
2170 3253 3255 1
2171 3256 3257 1
2172 3256 3258 1
2173 3259 3260 1
2174 3259 3261 1
2175 3262 3263 1
2176 3262 3264 1
2177 3265 3266 1
2178 3265 3267 1
2179 3268 3269 1
2180 3268 3270 1
2181 3271 3272 1
2182 3271 3273 1
2183 3274 3275 1
2184 3274 3276 1
2185 3277 3278 1
2186 3277 3279 1
2187 3280 3281 1
2188 3280 3282 1
2189 3283 3284 1
2190 3283 3285 1
2191 3286 3287 1
2192 3286 3288 1
2193 3289 3290 1
2194 3289 3291 1
2195 3292 3293 1
2196 3292 3294 1
2197 3295 3296 1
2198 3295 3297 1
2199 3298 3299 1
2200 3298 3300 1
2201 3301 3302 1
2202 3301 3303 1
2203 3304 3305 1
2204 3304 3306 1
2205 3307 3308 1
2206 3307 3309 1
2207 3310 3311 1
2208 3310 3312 1
2209 3313 3314 1
2210 3313 3315 1
2211 3316 3317 1
2212 3316 3318 1
2213 3319 3320 1
2214 3319 3321 1
2215 3322 3323 1
2216 3322 3324 1
2217 3325 3326 1
2218 3325 3327 1
2219 3328 3329 1
2220 3328 3330 1
2221 3331 3332 1
2222 3331 3333 1
2223 3334 3335 1
2224 3334 3336 1
2225 3337 3338 1
2226 3337 3339 1
2227 3340 3341 1
2228 3340 3342 1
2229 3343 3344 1
2230 3343 3345 1
2231 3346 3347 1
2232 3346 3348 1
2233 3349 3350 1
2234 3349 3351 1
2235 3352 3353 1
2236 3352 3354 1
2237 3355 3356 1
2238 3355 3357 1
2239 3358 3359 1
2240 3358 3360 1
2241 3361 3362 1
2242 3361 3363 1
2243 3364 3365 1
2244 3364 3366 1
2245 3367 3368 1
2246 3367 3369 1
2247 3370 3371 1
2248 3370 3372 1
2249 3373 3374 1
2250 3373 3375 1
2251 3376 3377 1
2252 3376 3378 1
2253 3379 3380 1
2254 3379 3381 1
2255 3382 3383 1
2256 3382 3384 1
2257 3385 3386 1
2258 3385 3387 1
2259 3388 3389 1
2260 3388 3390 1
2261 3391 3392 1
2262 3391 3393 1
2263 3394 3395 1
2264 3394 3396 1
2265 3397 3398 1
2266 3397 3399 1
2267 3400 3401 1
2268 3400 3402 1
2269 3403 3404 1
2270 3403 3405 1
2271 3406 3407 1
2272 3406 3408 1
2273 3409 3410 1
2274 3409 3411 1
2275 3412 3413 1
2276 3412 3414 1
2277 3415 3416 1
2278 3415 3417 1
2279 3418 3419 1
2280 3418 3420 1
2281 3421 3422 1
2282 3421 3423 1
2283 3424 3425 1
2284 3424 3426 1
2285 3427 3428 1
2286 3427 3429 1
2287 3430 3431 1
2288 3430 3432 1
2289 3433 3434 1
2290 3433 3435 1
2291 3436 3437 1
2292 3436 3438 1
2293 3439 3440 1
2294 3439 3441 1
2295 3442 3443 1
2296 3442 3444 1
2297 3445 3446 1
2298 3445 3447 1
2299 3448 3449 1
2300 3448 3450 1
2301 3451 3452 1
2302 3451 3453 1
2303 3454 3455 1
2304 3454 3456 1
2305 3457 3458 1
2306 3457 3459 1
2307 3460 3461 1
2308 3460 3462 1
2309 3463 3464 1
2310 3463 3465 1
2311 3466 3467 1
2312 3466 3468 1
2313 3469 3470 1
2314 3469 3471 1
2315 3472 3473 1
2316 3472 3474 1
2317 3475 3476 1
2318 3475 3477 1
2319 3478 3479 1
2320 3478 3480 1
2321 3481 3482 1
2322 3481 3483 1
2323 3484 3485 1
2324 3484 3486 1
2325 3487 3488 1
2326 3487 3489 1
2327 3490 3491 1
2328 3490 3492 1
2329 3493 3494 1
2330 3493 3495 1
2331 3496 3497 1
2332 3496 3498 1
2333 3499 3500 1
2334 3499 3501 1
2335 3502 3503 1
2336 3502 3504 1
2337 3505 3506 1
2338 3505 3507 1
2339 3508 3509 1
2340 3508 3510 1
2341 3511 3512 1
2342 3511 3513 1
2343 3514 3515 1
2344 3514 3516 1
2345 3517 3518 1
2346 3517 3519 1
2347 3520 3521 1
2348 3520 3522 1
2349 3523 3524 1
2350 3523 3525 1
2351 3526 3527 1
2352 3526 3528 1
2353 3529 3530 1
2354 3529 3531 1
2355 3532 3533 1
2356 3532 3534 1
2357 3535 3536 1
2358 3535 3537 1
2359 3538 3539 1
2360 3538 3540 1
2361 3541 3542 1
2362 3541 3543 1
2363 3544 3545 1
2364 3544 3546 1
2365 3547 3548 1
2366 3547 3549 1
2367 3550 3551 1
2368 3550 3552 1
2369 3553 3554 1
2370 3553 3555 1
2371 3556 3557 1
2372 3556 3558 1
2373 3559 3560 1
2374 3559 3561 1
2375 3562 3563 1
2376 3562 3564 1
2377 3565 3566 1
2378 3565 3567 1
2379 3568 3569 1
2380 3568 3570 1
2381 3571 3572 1
2382 3571 3573 1
2383 3574 3575 1
2384 3574 3576 1
2385 3577 3578 1
2386 3577 3579 1
2387 3580 3581 1
2388 3580 3582 1
2389 3583 3584 1
2390 3583 3585 1
2391 3586 3587 1
2392 3586 3588 1
2393 3589 3590 1
2394 3589 3591 1
2395 3592 3593 1
2396 3592 3594 1
2397 3595 3596 1
2398 3595 3597 1
2399 3598 3599 1
2400 3598 3600 1
2401 3601 3602 1
2402 3601 3603 1
2403 3604 3605 1
2404 3604 3606 1
2405 3607 3608 1
2406 3607 3609 1
2407 3610 3611 1
2408 3610 3612 1
2409 3613 3614 1
2410 3613 3615 1
2411 3616 3617 1
2412 3616 3618 1
2413 3619 3620 1
2414 3619 3621 1
2415 3622 3623 1
2416 3622 3624 1
2417 3625 3626 1
2418 3625 3627 1
2419 3628 3629 1
2420 3628 3630 1
2421 3631 3632 1
2422 3631 3633 1
2423 3634 3635 1
2424 3634 3636 1
2425 3637 3638 1
2426 3637 3639 1
2427 3640 3641 1
2428 3640 3642 1
2429 3643 3644 1
2430 3643 3645 1
2431 3646 3647 1
2432 3646 3648 1
2433 3649 3650 1
2434 3649 3651 1
2435 3652 3653 1
2436 3652 3654 1
2437 3655 3656 1
2438 3655 3657 1
2439 3658 3659 1
2440 3658 3660 1
2441 3661 3662 1
2442 3661 3663 1
2443 3664 3665 1
2444 3664 3666 1
2445 3667 3668 1
2446 3667 3669 1
2447 3670 3671 1
2448 3670 3672 1
2449 3673 3674 1
2450 3673 3675 1
2451 3676 3677 1
2452 3676 3678 1
2453 3679 3680 1
2454 3679 3681 1
2455 3682 3683 1
2456 3682 3684 1
2457 3685 3686 1
2458 3685 3687 1
2459 3688 3689 1
2460 3688 3690 1
2461 3691 3692 1
2462 3691 3693 1
2463 3694 3695 1
2464 3694 3696 1
2465 3697 3698 1
2466 3697 3699 1
2467 3700 3701 1
2468 3700 3702 1
2469 3703 3704 1
2470 3703 3705 1
2471 3706 3707 1
2472 3706 3708 1
2473 3709 3710 1
2474 3709 3711 1
2475 3712 3713 1
2476 3712 3714 1
2477 3715 3716 1
2478 3715 3717 1
2479 3718 3719 1
2480 3718 3720 1
2481 3721 3722 1
2482 3721 3723 1
2483 3724 3725 1
2484 3724 3726 1
2485 3727 3728 1
2486 3727 3729 1
2487 3730 3731 1
2488 3730 3732 1
2489 3733 3734 1
2490 3733 3735 1
2491 3736 3737 1
2492 3736 3738 1
2493 3739 3740 1
2494 3739 3741 1
2495 3742 3743 1
2496 3742 3744 1
2497 3745 3746 1
2498 3745 3747 1
2499 3748 3749 1
2500 3748 3750 1
2501 3751 3752 1
2502 3751 3753 1
2503 3754 3755 1
2504 3754 3756 1
2505 3757 3758 1
2506 3757 3759 1
2507 3760 3761 1
2508 3760 3762 1
2509 3763 3764 1
2510 3763 3765 1
2511 3766 3767 1
2512 3766 3768 1
2513 3769 3770 1
2514 3769 3771 1
2515 3772 3773 1
2516 3772 3774 1
2517 3775 3776 1
2518 3775 3777 1
2519 3778 3779 1
2520 3778 3780 1
2521 3781 3782 1
2522 3781 3783 1
2523 3784 3785 1
2524 3784 3786 1
2525 3787 3788 1
2526 3787 3789 1
2527 3790 3791 1
2528 3790 3792 1
2529 3793 3794 1
2530 3793 3795 1
2531 3796 3797 1
2532 3796 3798 1
2533 3799 3800 1
2534 3799 3801 1
2535 3802 3803 1
2536 3802 3804 1
2537 3805 3806 1
2538 3805 3807 1
2539 3808 3809 1
2540 3808 3810 1
2541 3811 3812 1
2542 3811 3813 1
2543 3814 3815 1
2544 3814 3816 1
2545 3817 3818 1
2546 3817 3819 1
2547 3820 3821 1
2548 3820 3822 1
2549 3823 3824 1
2550 3823 3825 1
2551 3826 3827 1
2552 3826 3828 1
2553 3829 3830 1
2554 3829 3831 1
2555 3832 3833 1
2556 3832 3834 1
2557 3835 3836 1
2558 3835 3837 1
2559 3838 3839 1
2560 3838 3840 1
2561 3841 3842 1
2562 3841 3843 1
2563 3844 3845 1
2564 3844 3846 1
2565 3847 3848 1
2566 3847 3849 1
2567 3850 3851 1
2568 3850 3852 1
2569 3853 3854 1
2570 3853 3855 1
2571 3856 3857 1
2572 3856 3858 1
2573 3859 3860 1
2574 3859 3861 1
2575 3862 3863 1
2576 3862 3864 1
2577 3865 3866 1
2578 3865 3867 1
2579 3868 3869 1
2580 3868 3870 1
2581 3871 3872 1
2582 3871 3873 1
2583 3874 3875 1
2584 3874 3876 1
2585 3877 3878 1
2586 3877 3879 1
2587 3880 3881 1
2588 3880 3882 1
2589 3883 3884 1
2590 3883 3885 1
2591 3886 3887 1
2592 3886 3888 1
2593 3889 3890 1
2594 3889 3891 1
2595 3892 3893 1
2596 3892 3894 1
2597 3895 3896 1
2598 3895 3897 1
2599 3898 3899 1
2600 3898 3900 1
2601 3901 3902 1
2602 3901 3903 1
2603 3904 3905 1
2604 3904 3906 1
2605 3907 3908 1
2606 3907 3909 1
2607 3910 3911 1
2608 3910 3912 1
2609 3913 3914 1
2610 3913 3915 1
2611 3916 3917 1
2612 3916 3918 1
2613 3919 3920 1
2614 3919 3921 1
2615 3922 3923 1
2616 3922 3924 1
2617 3925 3926 1
2618 3925 3927 1
2619 3928 3929 1
2620 3928 3930 1
2621 3931 3932 1
2622 3931 3933 1
2623 3934 3935 1
2624 3934 3936 1
2625 3937 3938 1
2626 3937 3939 1
2627 3940 3941 1
2628 3940 3942 1
2629 3943 3944 1
2630 3943 3945 1
2631 3946 3947 1
2632 3946 3948 1
2633 3949 3950 1
2634 3949 3951 1
2635 3952 3953 1
2636 3952 3954 1
2637 3955 3956 1
2638 3955 3957 1
2639 3958 3959 1
2640 3958 3960 1
2641 3961 3962 1
2642 3961 3963 1
2643 3964 3965 1
2644 3964 3966 1
2645 3967 3968 1
2646 3967 3969 1
2647 3970 3971 1
2648 3970 3972 1
2649 3973 3974 1
2650 3973 3975 1
2651 3976 3977 1
2652 3976 3978 1
2653 3979 3980 1
2654 3979 3981 1
2655 3982 3983 1
2656 3982 3984 1
2657 3985 3986 1
2658 3985 3987 1
2659 3988 3989 1
2660 3988 3990 1
2661 3991 3992 1
2662 3991 3993 1
2663 3994 3995 1
2664 3994 3996 1
2665 3997 3998 1
2666 3997 3999 1
2667 4000 4001 1
2668 4000 4002 1
2669 4003 4004 1
2670 4003 4005 1
2671 4006 4007 1
2672 4006 4008 1
2673 4009 4010 1
2674 4009 4011 1
2675 4012 4013 1
2676 4012 4014 1
2677 4015 4016 1
2678 4015 4017 1
2679 4018 4019 1
2680 4018 4020 1
2681 4021 4022 1
2682 4021 4023 1
2683 4024 4025 1
2684 4024 4026 1
2685 4027 4028 1
2686 4027 4029 1
2687 4030 4031 1
2688 4030 4032 1
2689 4033 4034 1
2690 4033 4035 1
2691 4036 4037 1
2692 4036 4038 1
2693 4039 4040 1
2694 4039 4041 1
2695 4042 4043 1
2696 4042 4044 1
2697 4045 4046 1
2698 4045 4047 1
2699 4048 4049 1
2700 4048 4050 1
2701 4051 4052 1
2702 4051 4053 1
2703 4054 4055 1
2704 4054 4056 1
2705 4057 4058 1
2706 4057 4059 1
2707 4060 4061 1
2708 4060 4062 1
2709 4063 4064 1
2710 4063 4065 1
2711 4066 4067 1
2712 4066 4068 1
2713 4069 4070 1
2714 4069 4071 1
2715 4072 4073 1
2716 4072 4074 1
2717 4075 4076 1
2718 4075 4077 1
2719 4078 4079 1
2720 4078 4080 1
2721 4081 4082 1
2722 4081 4083 1
2723 4084 4085 1
2724 4084 4086 1
2725 4087 4088 1
2726 4087 4089 1
2727 4090 4091 1
2728 4090 4092 1
2729 4093 4094 1
2730 4093 4095 1
2731 4096 4097 1
2732 4096 4098 1
2733 4099 4100 1
2734 4099 4101 1
2735 4102 4103 1
2736 4102 4104 1
2737 4105 4106 1
2738 4105 4107 1
2739 4108 4109 1
2740 4108 4110 1
2741 4111 4112 1
2742 4111 4113 1
2743 4114 4115 1
2744 4114 4116 1
2745 4117 4118 1
2746 4117 4119 1
2747 4120 4121 1
2748 4120 4122 1
2749 4123 4124 1
2750 4123 4125 1
2751 4126 4127 1
2752 4126 4128 1
2753 4129 4130 1
2754 4129 4131 1
2755 4132 4133 1
2756 4132 4134 1
2757 4135 4136 1
2758 4135 4137 1
2759 4138 4139 1
2760 4138 4140 1
2761 4141 4142 1
2762 4141 4143 1
2763 4144 4145 1
2764 4144 4146 1
2765 4147 4148 1
2766 4147 4149 1
2767 4150 4151 1
2768 4150 4152 1
2769 4153 4154 1
2770 4153 4155 1
2771 4156 4157 1
2772 4156 4158 1
2773 4159 4160 1
2774 4159 4161 1
2775 4162 4163 1
2776 4162 4164 1
2777 4165 4166 1
2778 4165 4167 1
2779 4168 4169 1
2780 4168 4170 1
2781 4171 4172 1
2782 4171 4173 1
2783 4174 4175 1
2784 4174 4176 1
2785 4177 4178 1
2786 4177 4179 1
2787 4180 4181 1
2788 4180 4182 1
2789 4183 4184 1
2790 4183 4185 1
2791 4186 4187 1
2792 4186 4188 1
2793 4189 4190 1
2794 4189 4191 1
2795 4192 4193 1
2796 4192 4194 1
2797 4195 4196 1
2798 4195 4197 1
2799 4198 4199 1
2800 4198 4200 1
2801 4201 4202 1
2802 4201 4203 1
2803 4204 4205 1
2804 4204 4206 1
2805 4207 4208 1
2806 4207 4209 1
2807 4210 4211 1
2808 4210 4212 1
2809 4213 4214 1
2810 4213 4215 1
2811 4216 4217 1
2812 4216 4218 1
2813 4219 4220 1
2814 4219 4221 1
2815 4222 4223 1
2816 4222 4224 1
2817 4225 4226 1
2818 4225 4227 1
2819 4228 4229 1
2820 4228 4230 1
2821 4231 4232 1
2822 4231 4233 1
2823 4234 4235 1
2824 4234 4236 1
2825 4237 4238 1
2826 4237 4239 1
2827 4240 4241 1
2828 4240 4242 1
2829 4243 4244 1
2830 4243 4245 1
2831 4246 4247 1
2832 4246 4248 1
2833 4249 4250 1
2834 4249 4251 1
2835 4252 4253 1
2836 4252 4254 1
2837 4255 4256 1
2838 4255 4257 1
2839 4258 4259 1
2840 4258 4260 1
2841 4261 4262 1
2842 4261 4263 1
2843 4264 4265 1
2844 4264 4266 1
2845 4267 4268 1
2846 4267 4269 1
2847 4270 4271 1
2848 4270 4272 1
2849 4273 4274 1
2850 4273 4275 1
2851 4276 4277 1
2852 4276 4278 1
2853 4279 4280 1
2854 4279 4281 1
2855 4282 4283 1
2856 4282 4284 1
2857 4285 4286 1
2858 4285 4287 1
2859 4288 4289 1
2860 4288 4290 1
2861 4291 4292 1
2862 4291 4293 1
2863 4294 4295 1
2864 4294 4296 1
2865 4297 4298 1
2866 4297 4299 1
2867 4300 4301 1
2868 4300 4302 1
2869 4303 4304 1
2870 4303 4305 1
2871 4306 4307 1
2872 4306 4308 1
2873 4309 4310 1
2874 4309 4311 1
2875 4312 4313 1
2876 4312 4314 1
2877 4315 4316 1
2878 4315 4317 1
2879 4318 4319 1
2880 4318 4320 1
2881 4321 4322 1
2882 4321 4323 1
2883 4324 4325 1
2884 4324 4326 1
2885 4327 4328 1
2886 4327 4329 1
2887 4330 4331 1
2888 4330 4332 1
2889 4333 4334 1
2890 4333 4335 1
2891 4336 4337 1
2892 4336 4338 1
2893 4339 4340 1
2894 4339 4341 1
2895 4342 4343 1
2896 4342 4344 1
2897 4345 4346 1
2898 4345 4347 1
2899 4348 4349 1
2900 4348 4350 1
2901 4351 4352 1
2902 4351 4353 1
2903 4354 4355 1
2904 4354 4356 1
2905 4357 4358 1
2906 4357 4359 1
2907 4360 4361 1
2908 4360 4362 1
2909 4363 4364 1
2910 4363 4365 1
2911 4366 4367 1
2912 4366 4368 1
2913 4369 4370 1
2914 4369 4371 1
2915 4372 4373 1
2916 4372 4374 1
2917 4375 4376 1
2918 4375 4377 1
2919 4378 4379 1
2920 4378 4380 1
2921 4381 4382 1
2922 4381 4383 1
2923 4384 4385 1
2924 4384 4386 1
2925 4387 4388 1
2926 4387 4389 1
2927 4390 4391 1
2928 4390 4392 1
2929 4393 4394 1
2930 4393 4395 1
2931 4396 4397 1
2932 4396 4398 1
2933 4399 4400 1
2934 4399 4401 1
2935 4402 4403 1
2936 4402 4404 1
2937 4405 4406 1
2938 4405 4407 1
2939 4408 4409 1
2940 4408 4410 1
2941 4411 4412 1
2942 4411 4413 1
2943 4414 4415 1
2944 4414 4416 1
2945 4417 4418 1
2946 4417 4419 1
2947 4420 4421 1
2948 4420 4422 1
2949 4423 4424 1
2950 4423 4425 1
2951 4426 4427 1
2952 4426 4428 1
2953 4429 4430 1
2954 4429 4431 1
2955 4432 4433 1
2956 4432 4434 1
2957 4435 4436 1
2958 4435 4437 1
2959 4438 4439 1
2960 4438 4440 1
2961 4441 4442 1
2962 4441 4443 1
2963 4444 4445 1
2964 4444 4446 1
2965 4447 4448 1
2966 4447 4449 1
2967 4450 4451 1
2968 4450 4452 1
2969 4453 4454 1
2970 4453 4455 1
2971 4456 4457 1
2972 4456 4458 1
2973 4459 4460 1
2974 4459 4461 1
2975 4462 4463 1
2976 4462 4464 1
2977 4465 4466 1
2978 4465 4467 1
2979 4468 4469 1
2980 4468 4470 1
2981 4471 4472 1
2982 4471 4473 1
2983 4474 4475 1
2984 4474 4476 1
2985 4477 4478 1
2986 4477 4479 1
2987 4480 4481 1
2988 4480 4482 1
2989 4483 4484 1
2990 4483 4485 1
2991 4486 4487 1
2992 4486 4488 1
2993 4489 4490 1
2994 4489 4491 1
2995 4492 4493 1
2996 4492 4494 1
2997 4495 4496 1
2998 4495 4497 1
2999 4498 4499 1
3000 4498 4500 1
3001 4501 4502 1
3002 4501 4503 1
3003 4504 4505 1
3004 4504 4506 1
3005 4507 4508 1
3006 4507 4509 1
3007 4510 4511 1
3008 4510 4512 1
3009 4513 4514 1
3010 4513 4515 1
3011 4516 4517 1
3012 4516 4518 1
3013 4519 4520 1
3014 4519 4521 1
3015 4522 4523 1
3016 4522 4524 1
3017 4525 4526 1
3018 4525 4527 1
3019 4528 4529 1
3020 4528 4530 1
3021 4531 4532 1
3022 4531 4533 1
3023 4534 4535 1
3024 4534 4536 1
3025 4537 4538 1
3026 4537 4539 1
3027 4540 4541 1
3028 4540 4542 1
3029 4543 4544 1
3030 4543 4545 1
3031 4546 4547 1
3032 4546 4548 1
3033 4549 4550 1
3034 4549 4551 1
3035 4552 4553 1
3036 4552 4554 1
3037 4555 4556 1
3038 4555 4557 1
3039 4558 4559 1
3040 4558 4560 1
3041 4561 4562 1
3042 4561 4563 1
3043 4564 4565 1
3044 4564 4566 1
3045 4567 4568 1
3046 4567 4569 1
3047 4570 4571 1
3048 4570 4572 1
3049 4573 4574 1
3050 4573 4575 1
3051 4576 4577 1
3052 4576 4578 1
3053 4579 4580 1
3054 4579 4581 1
3055 4582 4583 1
3056 4582 4584 1
3057 4585 4586 1
3058 4585 4587 1
3059 4588 4589 1
3060 4588 4590 1
3061 4591 4592 1
3062 4591 4593 1
3063 4594 4595 1
3064 4594 4596 1
3065 4597 4598 1
3066 4597 4599 1
3067 4600 4601 1
3068 4600 4602 1
3069 4603 4604 1
3070 4603 4605 1
3071 4606 4607 1
3072 4606 4608 1
3073 4609 4610 1
3074 4609 4611 1
3075 4612 4613 1
3076 4612 4614 1
3077 4615 4616 1
3078 4615 4617 1
3079 4618 4619 1
3080 4618 4620 1
3081 4621 4622 1
3082 4621 4623 1
3083 4624 4625 1
3084 4624 4626 1
3085 4627 4628 1
3086 4627 4629 1
3087 4630 4631 1
3088 4630 4632 1
3089 4633 4634 1
3090 4633 4635 1
3091 4636 4637 1
3092 4636 4638 1
3093 4639 4640 1
3094 4639 4641 1
3095 4642 4643 1
3096 4642 4644 1
3097 4645 4646 1
3098 4645 4647 1
3099 4648 4649 1
3100 4648 4650 1
3101 4651 4652 1
3102 4651 4653 1
3103 4654 4655 1
3104 4654 4656 1
3105 4657 4658 1
3106 4657 4659 1
3107 4660 4661 1
3108 4660 4662 1
3109 4663 4664 1
3110 4663 4665 1
3111 4666 4667 1
3112 4666 4668 1
3113 4669 4670 1
3114 4669 4671 1
3115 4672 4673 1
3116 4672 4674 1
3117 4675 4676 1
3118 4675 4677 1
3119 4678 4679 1
3120 4678 4680 1
3121 4681 4682 1
3122 4681 4683 1
3123 4684 4685 1
3124 4684 4686 1
3125 4687 4688 1
3126 4687 4689 1
3127 4690 4691 1
3128 4690 4692 1
3129 4693 4694 1
3130 4693 4695 1
3131 4696 4697 1
3132 4696 4698 1
3133 4699 4700 1
3134 4699 4701 1
3135 4702 4703 1
3136 4702 4704 1
3137 4705 4706 1
3138 4705 4707 1
3139 4708 4709 1
3140 4708 4710 1
3141 4711 4712 1
3142 4711 4713 1
3143 4714 4715 1
3144 4714 4716 1
3145 4717 4718 1
3146 4717 4719 1
3147 4720 4721 1
3148 4720 4722 1
3149 4723 4724 1
3150 4723 4725 1
3151 4726 4727 1
3152 4726 4728 1
3153 4729 4730 1
3154 4729 4731 1
3155 4732 4733 1
3156 4732 4734 1
3157 4735 4736 1
3158 4735 4737 1
3159 4738 4739 1
3160 4738 4740 1
3161 4741 4742 1
3162 4741 4743 1
3163 4744 4745 1
3164 4744 4746 1
3165 4747 4748 1
3166 4747 4749 1
3167 4750 4751 1
3168 4750 4752 1
3169 4753 4754 1
3170 4753 4755 1
3171 4756 4757 1
3172 4756 4758 1
3173 4759 4760 1
3174 4759 4761 1
3175 4762 4763 1
3176 4762 4764 1
3177 4765 4766 1
3178 4765 4767 1
3179 4768 4769 1
3180 4768 4770 1
3181 4771 4772 1
3182 4771 4773 1
3183 4774 4775 1
3184 4774 4776 1
3185 4777 4778 1
3186 4777 4779 1
3187 4780 4781 1
3188 4780 4782 1
3189 4783 4784 1
3190 4783 4785 1
3191 4786 4787 1
3192 4786 4788 1
3193 4789 4790 1
3194 4789 4791 1
3195 4792 4793 1
3196 4792 4794 1
3197 4795 4796 1
3198 4795 4797 1
3199 4798 4799 1
3200 4798 4800 1
3201 4801 4802 1
3202 4801 4803 1
3203 4804 4805 1
3204 4804 4806 1
3205 4807 4808 1
3206 4807 4809 1
3207 4810 4811 1
3208 4810 4812 1
3209 4813 4814 1
3210 4813 4815 1
3211 4816 4817 1
3212 4816 4818 1
3213 4819 4820 1
3214 4819 4821 1
3215 4822 4823 1
3216 4822 4824 1
3217 4825 4826 1
3218 4825 4827 1
3219 4828 4829 1
3220 4828 4830 1
3221 4831 4832 1
3222 4831 4833 1
3223 4834 4835 1
3224 4834 4836 1
3225 4837 4838 1
3226 4837 4839 1
3227 4840 4841 1
3228 4840 4842 1
3229 4843 4844 1
3230 4843 4845 1
3231 4846 4847 1
3232 4846 4848 1
3233 4849 4850 1
3234 4849 4851 1
3235 4852 4853 1
3236 4852 4854 1
3237 4855 4856 1
3238 4855 4857 1
3239 4858 4859 1
3240 4858 4860 1
3241 4861 4862 1
3242 4861 4863 1
3243 4864 4865 1
3244 4864 4866 1
3245 4867 4868 1
3246 4867 4869 1
3247 4870 4871 1
3248 4870 4872 1
3249 4873 4874 1
3250 4873 4875 1
3251 4876 4877 1
3252 4876 4878 1
3253 4879 4880 1
3254 4879 4881 1
3255 4882 4883 1
3256 4882 4884 1
3257 4885 4886 1
3258 4885 4887 1
3259 4888 4889 1
3260 4888 4890 1
3261 4891 4892 1
3262 4891 4893 1
3263 4894 4895 1
3264 4894 4896 1
3265 4897 4898 1
3266 4897 4899 1
3267 4900 4901 1
3268 4900 4902 1
3269 4903 4904 1
3270 4903 4905 1
3271 4906 4907 1
3272 4906 4908 1
3273 4909 4910 1
3274 4909 4911 1
3275 4912 4913 1
3276 4912 4914 1
3277 4915 4916 1
3278 4915 4917 1
3279 4918 4919 1
3280 4918 4920 1
3281 4921 4922 1
3282 4921 4923 1
3283 4924 4925 1
3284 4924 4926 1
3285 4927 4928 1
3286 4927 4929 1
3287 4930 4931 1
3288 4930 4932 1
3289 4933 4934 1
3290 4933 4935 1
3291 4936 4937 1
3292 4936 4938 1
3293 4939 4940 1
3294 4939 4941 1
3295 4942 4943 1
3296 4942 4944 1
3297 4945 4946 1
3298 4945 4947 1
3299 4948 4949 1
3300 4948 4950 1
3301 4951 4952 1
3302 4951 4953 1
3303 4954 4955 1
3304 4954 4956 1
3305 4957 4958 1
3306 4957 4959 1
3307 4960 4961 1
3308 4960 4962 1
3309 4963 4964 1
3310 4963 4965 1
3311 4966 4967 1
3312 4966 4968 1
3313 4969 4970 1
3314 4969 4971 1
3315 4972 4973 1
3316 4972 4974 1
3317 4975 4976 1
3318 4975 4977 1
3319 4978 4979 1
3320 4978 4980 1
3321 4981 4982 1
3322 4981 4983 1
3323 4984 4985 1
3324 4984 4986 1
3325 4987 4988 1
3326 4987 4989 1
3327 4990 4991 1
3328 4990 4992 1
3329 4993 4994 1
3330 4993 4995 1
3331 4996 4997 1
3332 4996 4998 1
3333 4999 5000 1
3334 4999 5001 1
3335 5002 5003 1
3336 5002 5004 1
3337 5005 5006 1
3338 5005 5007 1
3339 5008 5009 1
3340 5008 5010 1
3341 5011 5012 1
3342 5011 5013 1
3343 5014 5015 1
3344 5014 5016 1
3345 5017 5018 1
3346 5017 5019 1
3347 5020 5021 1
3348 5020 5022 1
3349 5023 5024 1
3350 5023 5025 1
3351 5026 5027 1
3352 5026 5028 1
3353 5029 5030 1
3354 5029 5031 1
3355 5032 5033 1
3356 5032 5034 1
3357 5035 5036 1
3358 5035 5037 1
3359 5038 5039 1
3360 5038 5040 1
3361 5041 5042 1
3362 5041 5043 1
3363 5044 5045 1
3364 5044 5046 1
3365 5047 5048 1
3366 5047 5049 1
3367 5050 5051 1
3368 5050 5052 1
3369 5053 5054 1
3370 5053 5055 1
3371 5056 5057 1
3372 5056 5058 1
3373 5059 5060 1
3374 5059 5061 1
3375 5062 5063 1
3376 5062 5064 1
3377 5065 5066 1
3378 5065 5067 1
3379 5068 5069 1
3380 5068 5070 1
3381 5071 5072 1
3382 5071 5073 1
3383 5074 5075 1
3384 5074 5076 1
3385 5077 5078 1
3386 5077 5079 1
3387 5080 5081 1
3388 5080 5082 1
3389 5083 5084 1
3390 5083 5085 1
3391 5086 5087 1
3392 5086 5088 1
3393 5089 5090 1
3394 5089 5091 1
3395 5092 5093 1
3396 5092 5094 1
3397 5095 5096 1
3398 5095 5097 1
3399 5098 5099 1
3400 5098 5100 1
3401 5101 5102 1
3402 5101 5103 1
3403 5104 5105 1
3404 5104 5106 1
3405 5107 5108 1
3406 5107 5109 1
3407 5110 5111 1
3408 5110 5112 1
3409 5113 5114 1
3410 5113 5115 1
3411 5116 5117 1
3412 5116 5118 1
3413 5119 5120 1
3414 5119 5121 1
3415 5122 5123 1
3416 5122 5124 1
3417 5125 5126 1
3418 5125 5127 1
3419 5128 5129 1
3420 5128 5130 1
3421 5131 5132 1
3422 5131 5133 1
3423 5134 5135 1
3424 5134 5136 1
3425 5137 5138 1
3426 5137 5139 1
3427 5140 5141 1
3428 5140 5142 1
3429 5143 5144 1
3430 5143 5145 1
3431 5146 5147 1
3432 5146 5148 1
3433 5149 5150 1
3434 5149 5151 1
3435 5152 5153 1
3436 5152 5154 1
3437 5155 5156 1
3438 5155 5157 1
3439 5158 5159 1
3440 5158 5160 1
3441 5161 5162 1
3442 5161 5163 1
3443 5164 5165 1
3444 5164 5166 1
3445 5167 5168 1
3446 5167 5169 1
3447 5170 5171 1
3448 5170 5172 1
3449 5173 5174 1
3450 5173 5175 1
3451 5176 5177 1
3452 5176 5178 1
3453 5179 5180 1
3454 5179 5181 1
3455 5182 5183 1
3456 5182 5184 1
3457 5185 5186 1
3458 5185 5187 1
3459 5188 5189 1
3460 5188 5190 1
3461 5191 5192 1
3462 5191 5193 1
3463 5194 5195 1
3464 5194 5196 1
3465 5197 5198 1
3466 5197 5199 1
3467 5200 5201 1
3468 5200 5202 1
3469 5203 5204 1
3470 5203 5205 1
3471 5206 5207 1
3472 5206 5208 1
3473 5209 5210 1
3474 5209 5211 1
3475 5212 5213 1
3476 5212 5214 1
3477 5215 5216 1
3478 5215 5217 1
3479 5218 5219 1
3480 5218 5220 1
3481 5221 5222 1
3482 5221 5223 1
3483 5224 5225 1
3484 5224 5226 1
3485 5227 5228 1
3486 5227 5229 1
3487 5230 5231 1
3488 5230 5232 1
3489 5233 5234 1
3490 5233 5235 1
3491 5236 5237 1
3492 5236 5238 1
3493 5239 5240 1
3494 5239 5241 1
3495 5242 5243 1
3496 5242 5244 1
3497 5245 5246 1
3498 5245 5247 1
3499 5248 5249 1
3500 5248 5250 1
3501 5251 5252 1
3502 5251 5253 1
3503 5254 5255 1
3504 5254 5256 1
3505 5257 5258 1
3506 5257 5259 1
3507 5260 5261 1
3508 5260 5262 1
3509 5263 5264 1
3510 5263 5265 1
3511 5266 5267 1
3512 5266 5268 1
3513 5269 5270 1
3514 5269 5271 1
3515 5272 5273 1
3516 5272 5274 1
3517 5275 5276 1
3518 5275 5277 1
3519 5278 5279 1
3520 5278 5280 1
3521 5281 5282 1
3522 5281 5283 1
3523 5284 5285 1
3524 5284 5286 1
3525 5287 5288 1
3526 5287 5289 1
3527 5290 5291 1
3528 5290 5292 1
3529 5293 5294 1
3530 5293 5295 1
3531 5296 5297 1
3532 5296 5298 1
3533 5299 5300 1
3534 5299 5301 1
3535 5302 5303 1
3536 5302 5304 1
3537 5305 5306 1
3538 5305 5307 1
3539 5308 5309 1
3540 5308 5310 1
3541 5311 5312 1
3542 5311 5313 1
3543 5314 5315 1
3544 5314 5316 1
3545 5317 5318 1
3546 5317 5319 1
3547 5320 5321 1
3548 5320 5322 1
3549 5323 5324 1
3550 5323 5325 1
3551 5326 5327 1
3552 5326 5328 1
3553 5329 5330 1
3554 5329 5331 1
3555 5332 5333 1
3556 5332 5334 1
3557 5335 5336 1
3558 5335 5337 1
3559 5338 5339 1
3560 5338 5340 1
3561 5341 5342 1
3562 5341 5343 1
3563 5344 5345 1
3564 5344 5346 1
3565 5347 5348 1
3566 5347 5349 1
3567 5350 5351 1
3568 5350 5352 1
3569 5353 5354 1
3570 5353 5355 1
3571 5356 5357 1
3572 5356 5358 1
3573 5359 5360 1
3574 5359 5361 1
3575 5362 5363 1
3576 5362 5364 1
3577 5365 5366 1
3578 5365 5367 1
3579 5368 5369 1
3580 5368 5370 1
3581 5371 5372 1
3582 5371 5373 1
3583 5374 5375 1
3584 5374 5376 1
3585 5377 5378 1
3586 5377 5379 1
3587 5380 5381 1
3588 5380 5382 1
3589 5383 5384 1
3590 5383 5385 1
3591 5386 5387 1
3592 5386 5388 1
3593 5389 5390 1
3594 5389 5391 1
3595 5392 5393 1
3596 5392 5394 1
3597 5395 5396 1
3598 5395 5397 1
3599 5398 5399 1
3600 5398 5400 1
3601 5401 5402 1
3602 5401 5403 1
3603 5404 5405 1
3604 5404 5406 1
3605 5407 5408 1
3606 5407 5409 1
3607 5410 5411 1
3608 5410 5412 1
3609 5413 5414 1
3610 5413 5415 1
3611 5416 5417 1
3612 5416 5418 1
3613 5419 5420 1
3614 5419 5421 1
3615 5422 5423 1
3616 5422 5424 1
3617 5425 5426 1
3618 5425 5427 1
3619 5428 5429 1
3620 5428 5430 1
3621 5431 5432 1
3622 5431 5433 1
3623 5434 5435 1
3624 5434 5436 1
3625 5437 5438 1
3626 5437 5439 1
3627 5440 5441 1
3628 5440 5442 1
3629 5443 5444 1
3630 5443 5445 1
3631 5446 5447 1
3632 5446 5448 1
3633 5449 5450 1
3634 5449 5451 1
3635 5452 5453 1
3636 5452 5454 1
3637 5455 5456 1
3638 5455 5457 1
3639 5458 5459 1
3640 5458 5460 1
3641 5461 5462 1
3642 5461 5463 1
3643 5464 5465 1
3644 5464 5466 1
3645 5467 5468 1
3646 5467 5469 1
3647 5470 5471 1
3648 5470 5472 1
3649 5473 5474 1
3650 5473 5475 1
3651 5476 5477 1
3652 5476 5478 1
3653 5479 5480 1
3654 5479 5481 1
3655 5482 5483 1
3656 5482 5484 1
3657 5485 5486 1
3658 5485 5487 1
3659 5488 5489 1
3660 5488 5490 1
3661 5491 5492 1
3662 5491 5493 1
3663 5494 5495 1
3664 5494 5496 1
3665 5497 5498 1
3666 5497 5499 1
3667 5500 5501 1
3668 5500 5502 1
3669 5503 5504 1
3670 5503 5505 1
3671 5506 5507 1
3672 5506 5508 1
3673 5509 5510 1
3674 5509 5511 1
3675 5512 5513 1
3676 5512 5514 1
3677 5515 5516 1
3678 5515 5517 1
3679 5518 5519 1
3680 5518 5520 1
3681 5521 5522 1
3682 5521 5523 1
3683 5524 5525 1
3684 5524 5526 1
3685 5527 5528 1
3686 5527 5529 1
3687 5530 5531 1
3688 5530 5532 1
3689 5533 5534 1
3690 5533 5535 1
3691 5536 5537 1
3692 5536 5538 1
3693 5539 5540 1
3694 5539 5541 1
3695 5542 5543 1
3696 5542 5544 1
3697 5545 5546 1
3698 5545 5547 1
3699 5548 5549 1
3700 5548 5550 1
3701 5551 5552 1
3702 5551 5553 1
3703 5554 5555 1
3704 5554 5556 1
3705 5557 5558 1
3706 5557 5559 1
3707 5560 5561 1
3708 5560 5562 1
3709 5563 5564 1
3710 5563 5565 1
3711 5566 5567 1
3712 5566 5568 1
3713 5569 5570 1
3714 5569 5571 1
3715 5572 5573 1
3716 5572 5574 1
3717 5575 5576 1
3718 5575 5577 1
3719 5578 5579 1
3720 5578 5580 1
3721 5581 5582 1
3722 5581 5583 1
3723 5584 5585 1
3724 5584 5586 1
3725 5587 5588 1
3726 5587 5589 1
3727 5590 5591 1
3728 5590 5592 1
3729 5593 5594 1
3730 5593 5595 1
3731 5596 5597 1
3732 5596 5598 1
3733 5599 5600 1
3734 5599 5601 1
3735 5602 5603 1
3736 5602 5604 1
3737 5605 5606 1
3738 5605 5607 1
3739 5608 5609 1
3740 5608 5610 1
3741 5611 5612 1
3742 5611 5613 1
3743 5614 5615 1
3744 5614 5616 1
3745 5617 5618 1
3746 5617 5619 1
3747 5620 5621 1
3748 5620 5622 1
3749 5623 5624 1
3750 5623 5625 1
3751 5626 5627 1
3752 5626 5628 1
3753 5629 5630 1
3754 5629 5631 1
3755 5632 5633 1
3756 5632 5634 1
3757 5635 5636 1
3758 5635 5637 1
3759 5638 5639 1
3760 5638 5640 1
3761 5641 5642 1
3762 5641 5643 1
3763 5644 5645 1
3764 5644 5646 1
3765 5647 5648 1
3766 5647 5649 1
3767 5650 5651 1
3768 5650 5652 1
3769 5653 5654 1
3770 5653 5655 1
3771 5656 5657 1
3772 5656 5658 1
3773 5659 5660 1
3774 5659 5661 1
3775 5662 5663 1
3776 5662 5664 1
3777 5665 5666 1
3778 5665 5667 1
3779 5668 5669 1
3780 5668 5670 1
3781 5671 5672 1
3782 5671 5673 1
3783 5674 5675 1
3784 5674 5676 1
3785 5677 5678 1
3786 5677 5679 1
3787 5680 5681 1
3788 5680 5682 1
3789 5683 5684 1
3790 5683 5685 1
3791 5686 5687 1
3792 5686 5688 1
3793 5689 5690 1
3794 5689 5691 1
3795 5692 5693 1
3796 5692 5694 1
3797 5695 5696 1
3798 5695 5697 1
3799 5698 5699 1
3800 5698 5700 1
3801 5701 5702 1
3802 5701 5703 1
3803 5704 5705 1
3804 5704 5706 1
3805 5707 5708 1
3806 5707 5709 1
3807 5710 5711 1
3808 5710 5712 1
3809 5713 5714 1
3810 5713 5715 1
3811 5716 5717 1
3812 5716 5718 1
3813 5719 5720 1
3814 5719 5721 1
3815 5722 5723 1
3816 5722 5724 1
3817 5725 5726 1
3818 5725 5727 1
3819 5728 5729 1
3820 5728 5730 1
3821 5731 5732 1
3822 5731 5733 1
3823 5734 5735 1
3824 5734 5736 1
3825 5737 5738 1
3826 5737 5739 1
3827 5740 5741 1
3828 5740 5742 1
3829 5743 5744 1
3830 5743 5745 1
3831 5746 5747 1
3832 5746 5748 1
3833 5749 5750 1
3834 5749 5751 1
3835 5752 5753 1
3836 5752 5754 1
3837 5755 5756 1
3838 5755 5757 1
3839 5758 5759 1
3840 5758 5760 1
3841 5761 5762 1
3842 5761 5763 1
3843 5764 5765 1
3844 5764 5766 1
3845 5767 5768 1
3846 5767 5769 1
3847 5770 5771 1
3848 5770 5772 1
3849 5773 5774 1
3850 5773 5775 1
3851 5776 5777 1
3852 5776 5778 1
3853 5779 5780 1
3854 5779 5781 1
3855 5782 5783 1
3856 5782 5784 1
3857 5785 5786 1
3858 5785 5787 1
3859 5788 5789 1
3860 5788 5790 1
3861 5791 5792 1
3862 5791 5793 1
3863 5794 5795 1
3864 5794 5796 1
3865 5797 5798 1
3866 5797 5799 1
3867 5800 5801 1
3868 5800 5802 1
3869 5803 5804 1
3870 5803 5805 1
3871 5806 5807 1
3872 5806 5808 1
3873 5809 5810 1
3874 5809 5811 1
3875 5812 5813 1
3876 5812 5814 1
3877 5815 5816 1
3878 5815 5817 1
3879 5818 5819 1
3880 5818 5820 1
3881 5821 5822 1
3882 5821 5823 1
3883 5824 5825 1
3884 5824 5826 1
3885 5827 5828 1
3886 5827 5829 1
3887 5830 5831 1
3888 5830 5832 1
3889 5833 5834 1
3890 5833 5835 1
3891 5836 5837 1
3892 5836 5838 1
3893 5839 5840 1
3894 5839 5841 1
3895 5842 5843 1
3896 5842 5844 1
3897 5845 5846 1
3898 5845 5847 1
3899 5848 5849 1
3900 5848 5850 1
3901 5851 5852 1
3902 5851 5853 1
3903 5854 5855 1
3904 5854 5856 1
3905 5857 5858 1
3906 5857 5859 1
3907 5860 5861 1
3908 5860 5862 1
3909 5863 5864 1
3910 5863 5865 1
3911 5866 5867 1
3912 5866 5868 1
3913 5869 5870 1
3914 5869 5871 1
3915 5872 5873 1
3916 5872 5874 1
3917 5875 5876 1
3918 5875 5877 1
3919 5878 5879 1
3920 5878 5880 1
3921 5881 5882 1
3922 5881 5883 1
3923 5884 5885 1
3924 5884 5886 1
3925 5887 5888 1
3926 5887 5889 1
3927 5890 5891 1
3928 5890 5892 1
3929 5893 5894 1
3930 5893 5895 1
3931 5896 5897 1
3932 5896 5898 1
3933 5899 5900 1
3934 5899 5901 1
3935 5902 5903 1
3936 5902 5904 1
3937 5905 5906 1
3938 5905 5907 1
3939 5908 5909 1
3940 5908 5910 1
3941 5911 5912 1
3942 5911 5913 1
3943 5914 5915 1
3944 5914 5916 1
3945 5917 5918 1
3946 5917 5919 1
3947 5920 5921 1
3948 5920 5922 1
3949 5923 5924 1
3950 5923 5925 1
3951 5926 5927 1
3952 5926 5928 1
3953 5929 5930 1
3954 5929 5931 1
3955 5932 5933 1
3956 5932 5934 1
3957 5935 5936 1
3958 5935 5937 1
3959 5938 5939 1
3960 5938 5940 1
3961 5941 5942 1
3962 5941 5943 1
3963 5944 5945 1
3964 5944 5946 1
3965 5947 5948 1
3966 5947 5949 1
3967 5950 5951 1
3968 5950 5952 1
3969 5953 5954 1
3970 5953 5955 1
3971 5956 5957 1
3972 5956 5958 1
3973 5959 5960 1
3974 5959 5961 1
3975 5962 5963 1
3976 5962 5964 1
3977 5965 5966 1
3978 5965 5967 1
3979 5968 5969 1
3980 5968 5970 1
3981 5971 5972 1
3982 5971 5973 1
3983 5974 5975 1
3984 5974 5976 1
3985 5977 5978 1
3986 5977 5979 1
3987 5980 5981 1
3988 5980 5982 1
3989 5983 5984 1
3990 5983 5985 1
3991 5986 5987 1
3992 5986 5988 1
3993 5989 5990 1
3994 5989 5991 1
3995 5992 5993 1
3996 5992 5994 1
3997 5995 5996 1
3998 5995 5997 1
3999 5998 5999 1
4000 5998 6000 1
4001 6001 6002 1
4002 6001 6003 1
4003 6004 6005 1
4004 6004 6006 1
4005 6007 6008 1
4006 6007 6009 1
4007 6010 6011 1
4008 6010 6012 1
4009 6013 6014 1
4010 6013 6015 1
4011 6016 6017 1
4012 6016 6018 1
4013 6019 6020 1
4014 6019 6021 1
4015 6022 6023 1
4016 6022 6024 1
4017 6025 6026 1
4018 6025 6027 1
4019 6028 6029 1
4020 6028 6030 1
4021 6031 6032 1
4022 6031 6033 1
4023 6034 6035 1
4024 6034 6036 1
4025 6037 6038 1
4026 6037 6039 1
4027 6040 6041 1
4028 6040 6042 1
4029 6043 6044 1
4030 6043 6045 1
4031 6046 6047 1
4032 6046 6048 1
4033 6049 6050 1
4034 6049 6051 1
4035 6052 6053 1
4036 6052 6054 1
4037 6055 6056 1
4038 6055 6057 1
4039 6058 6059 1
4040 6058 6060 1
4041 6061 6062 1
4042 6061 6063 1
4043 6064 6065 1
4044 6064 6066 1
4045 6067 6068 1
4046 6067 6069 1
4047 6070 6071 1
4048 6070 6072 1
4049 6073 6074 1
4050 6073 6075 1
4051 6076 6077 1
4052 6076 6078 1
4053 6079 6080 1
4054 6079 6081 1
4055 6082 6083 1
4056 6082 6084 1
4057 6085 6086 1
4058 6085 6087 1
4059 6088 6089 1
4060 6088 6090 1
4061 6091 6092 1
4062 6091 6093 1
4063 6094 6095 1
4064 6094 6096 1
4065 6097 6098 1
4066 6097 6099 1
4067 6100 6101 1
4068 6100 6102 1
4069 6103 6104 1
4070 6103 6105 1
4071 6106 6107 1
4072 6106 6108 1
4073 6109 6110 1
4074 6109 6111 1
4075 6112 6113 1
4076 6112 6114 1
4077 6115 6116 1
4078 6115 6117 1
4079 6118 6119 1
4080 6118 6120 1
4081 6121 6122 1
4082 6121 6123 1
4083 6124 6125 1
4084 6124 6126 1
4085 6127 6128 1
4086 6127 6129 1
4087 6130 6131 1
4088 6130 6132 1
4089 6133 6134 1
4090 6133 6135 1
4091 6136 6137 1
4092 6136 6138 1
4093 6139 6140 1
4094 6139 6141 1
4095 6142 6143 1
4096 6142 6144 1
4097 6145 6146 1
4098 6145 6147 1
4099 6148 6149 1
4100 6148 6150 1
4101 6151 6152 1
4102 6151 6153 1
4103 6154 6155 1
4104 6154 6156 1
4105 6157 6158 1
4106 6157 6159 1
4107 6160 6161 1
4108 6160 6162 1
4109 6163 6164 1
4110 6163 6165 1
4111 6166 6167 1
4112 6166 6168 1
4113 6169 6170 1
4114 6169 6171 1
4115 6172 6173 1
4116 6172 6174 1
4117 6175 6176 1
4118 6175 6177 1
4119 6178 6179 1
4120 6178 6180 1
4121 6181 6182 1
4122 6181 6183 1
4123 6184 6185 1
4124 6184 6186 1
4125 6187 6188 1
4126 6187 6189 1
4127 6190 6191 1
4128 6190 6192 1
4129 6193 6194 1
4130 6193 6195 1
4131 6196 6197 1
4132 6196 6198 1
4133 6199 6200 1
4134 6199 6201 1
4135 6202 6203 1
4136 6202 6204 1
4137 6205 6206 1
4138 6205 6207 1
4139 6208 6209 1
4140 6208 6210 1
4141 6211 6212 1
4142 6211 6213 1
4143 6214 6215 1
4144 6214 6216 1
4145 6217 6218 1
4146 6217 6219 1
4147 6220 6221 1
4148 6220 6222 1
4149 6223 6224 1
4150 6223 6225 1
4151 6226 6227 1
4152 6226 6228 1
4153 6229 6230 1
4154 6229 6231 1
4155 6232 6233 1
4156 6232 6234 1
4157 6235 6236 1
4158 6235 6237 1
4159 6238 6239 1
4160 6238 6240 1
4161 6241 6242 1
4162 6241 6243 1
4163 6244 6245 1
4164 6244 6246 1
4165 6247 6248 1
4166 6247 6249 1
4167 6250 6251 1
4168 6250 6252 1
4169 6253 6254 1
4170 6253 6255 1
4171 6256 6257 1
4172 6256 6258 1
4173 6259 6260 1
4174 6259 6261 1
4175 6262 6263 1
4176 6262 6264 1
4177 6265 6266 1
4178 6265 6267 1
4179 6268 6269 1
4180 6268 6270 1
4181 6271 6272 1
4182 6271 6273 1
4183 6274 6275 1
4184 6274 6276 1
4185 6277 6278 1
4186 6277 6279 1
4187 6280 6281 1
4188 6280 6282 1
4189 6283 6284 1
4190 6283 6285 1
4191 6286 6287 1
4192 6286 6288 1
4193 6289 6290 1
4194 6289 6291 1
4195 6292 6293 1
4196 6292 6294 1
4197 6295 6296 1
4198 6295 6297 1
4199 6298 6299 1
4200 6298 6300 1
4201 6301 6302 1
4202 6301 6303 1
4203 6304 6305 1
4204 6304 6306 1
4205 6307 6308 1
4206 6307 6309 1
4207 6310 6311 1
4208 6310 6312 1
4209 6313 6314 1
4210 6313 6315 1
4211 6316 6317 1
4212 6316 6318 1
4213 6319 6320 1
4214 6319 6321 1
4215 6322 6323 1
4216 6322 6324 1
4217 6325 6326 1
4218 6325 6327 1
4219 6328 6329 1
4220 6328 6330 1
4221 6331 6332 1
4222 6331 6333 1
4223 6334 6335 1
4224 6334 6336 1
4225 6337 6338 1
4226 6337 6339 1
4227 6340 6341 1
4228 6340 6342 1
4229 6343 6344 1
4230 6343 6345 1
4231 6346 6347 1
4232 6346 6348 1
4233 6349 6350 1
4234 6349 6351 1
4235 6352 6353 1
4236 6352 6354 1
4237 6355 6356 1
4238 6355 6357 1
4239 6358 6359 1
4240 6358 6360 1
4241 6361 6362 1
4242 6361 6363 1
4243 6364 6365 1
4244 6364 6366 1
4245 6367 6368 1
4246 6367 6369 1
4247 6370 6371 1
4248 6370 6372 1
4249 6373 6374 1
4250 6373 6375 1
4251 6376 6377 1
4252 6376 6378 1
4253 6379 6380 1
4254 6379 6381 1
4255 6382 6383 1
4256 6382 6384 1
4257 6385 6386 1
4258 6385 6387 1
4259 6388 6389 1
4260 6388 6390 1
4261 6391 6392 1
4262 6391 6393 1
4263 6394 6395 1
4264 6394 6396 1
4265 6397 6398 1
4266 6397 6399 1
4267 6400 6401 1
4268 6400 6402 1
4269 6403 6404 1
4270 6403 6405 1
4271 6406 6407 1
4272 6406 6408 1
4273 6409 6410 1
4274 6409 6411 1
4275 6412 6413 1
4276 6412 6414 1
4277 6415 6416 1
4278 6415 6417 1
4279 6418 6419 1
4280 6418 6420 1
4281 6421 6422 1
4282 6421 6423 1
4283 6424 6425 1
4284 6424 6426 1
4285 6427 6428 1
4286 6427 6429 1
4287 6430 6431 1
4288 6430 6432 1
4289 6433 6434 1
4290 6433 6435 1
4291 6436 6437 1
4292 6436 6438 1
4293 6439 6440 1
4294 6439 6441 1
4295 6442 6443 1
4296 6442 6444 1
4297 6445 6446 1
4298 6445 6447 1
4299 6448 6449 1
4300 6448 6450 1
4301 6451 6452 1
4302 6451 6453 1
4303 6454 6455 1
4304 6454 6456 1
4305 6457 6458 1
4306 6457 6459 1
4307 6460 6461 1
4308 6460 6462 1
4309 6463 6464 1
4310 6463 6465 1
4311 6466 6467 1
4312 6466 6468 1
4313 6469 6470 1
4314 6469 6471 1
4315 6472 6473 1
4316 6472 6474 1
4317 6475 6476 1
4318 6475 6477 1
4319 6478 6479 1
4320 6478 6480 1
4321 6481 6482 1
4322 6481 6483 1
4323 6484 6485 1
4324 6484 6486 1
4325 6487 6488 1
4326 6487 6489 1
4327 6490 6491 1
4328 6490 6492 1
4329 6493 6494 1
4330 6493 6495 1
4331 6496 6497 1
4332 6496 6498 1
4333 6499 6500 1
4334 6499 6501 1
4335 6502 6503 1
4336 6502 6504 1
4337 6505 6506 1
4338 6505 6507 1
4339 6508 6509 1
4340 6508 6510 1
4341 6511 6512 1
4342 6511 6513 1
4343 6514 6515 1
4344 6514 6516 1
4345 6517 6518 1
4346 6517 6519 1
4347 6520 6521 1
4348 6520 6522 1
4349 6523 6524 1
4350 6523 6525 1
4351 6526 6527 1
4352 6526 6528 1
4353 6529 6530 1
4354 6529 6531 1
4355 6532 6533 1
4356 6532 6534 1
4357 6535 6536 1
4358 6535 6537 1
4359 6538 6539 1
4360 6538 6540 1
4361 6541 6542 1
4362 6541 6543 1
4363 6544 6545 1
4364 6544 6546 1
4365 6547 6548 1
4366 6547 6549 1
4367 6550 6551 1
4368 6550 6552 1
4369 6553 6554 1
4370 6553 6555 1
4371 6556 6557 1
4372 6556 6558 1
4373 6559 6560 1
4374 6559 6561 1
4375 6562 6563 1
4376 6562 6564 1
4377 6565 6566 1
4378 6565 6567 1
4379 6568 6569 1
4380 6568 6570 1
4381 6571 6572 1
4382 6571 6573 1
4383 6574 6575 1
4384 6574 6576 1
4385 6577 6578 1
4386 6577 6579 1
4387 6580 6581 1
4388 6580 6582 1
4389 6583 6584 1
4390 6583 6585 1
4391 6586 6587 1
4392 6586 6588 1
4393 6589 6590 1
4394 6589 6591 1
4395 6592 6593 1
4396 6592 6594 1
4397 6595 6596 1
4398 6595 6597 1
4399 6598 6599 1
4400 6598 6600 1
4401 6601 6602 1
4402 6601 6603 1
4403 6604 6605 1
4404 6604 6606 1
4405 6607 6608 1
4406 6607 6609 1
4407 6610 6611 1
4408 6610 6612 1
4409 6613 6614 1
4410 6613 6615 1
4411 6616 6617 1
4412 6616 6618 1
4413 6619 6620 1
4414 6619 6621 1
4415 6622 6623 1
4416 6622 6624 1
4417 6625 6626 1
4418 6625 6627 1
4419 6628 6629 1
4420 6628 6630 1
4421 6631 6632 1
4422 6631 6633 1
4423 6634 6635 1
4424 6634 6636 1
4425 6637 6638 1
4426 6637 6639 1
4427 6640 6641 1
4428 6640 6642 1
4429 6643 6644 1
4430 6643 6645 1
4431 6646 6647 1
4432 6646 6648 1
4433 6649 6650 1
4434 6649 6651 1
4435 6652 6653 1
4436 6652 6654 1
4437 6655 6656 1
4438 6655 6657 1
4439 6658 6659 1
4440 6658 6660 1
4441 6661 6662 1
4442 6661 6663 1
4443 6664 6665 1
4444 6664 6666 1
4445 6667 6668 1
4446 6667 6669 1
4447 6670 6671 1
4448 6670 6672 1
4449 6673 6674 1
4450 6673 6675 1
4451 6676 6677 1
4452 6676 6678 1
4453 6679 6680 1
4454 6679 6681 1
4455 6682 6683 1
4456 6682 6684 1
4457 6685 6686 1
4458 6685 6687 1
4459 6688 6689 1
4460 6688 6690 1
4461 6691 6692 1
4462 6691 6693 1
4463 6694 6695 1
4464 6694 6696 1
4465 6697 6698 1
4466 6697 6699 1
4467 6700 6701 1
4468 6700 6702 1
4469 6703 6704 1
4470 6703 6705 1
4471 6706 6707 1
4472 6706 6708 1
4473 6709 6710 1
4474 6709 6711 1
4475 6712 6713 1
4476 6712 6714 1
4477 6715 6716 1
4478 6715 6717 1
4479 6718 6719 1
4480 6718 6720 1
4481 6721 6722 1
4482 6721 6723 1
4483 6724 6725 1
4484 6724 6726 1
4485 6727 6728 1
4486 6727 6729 1
4487 6730 6731 1
4488 6730 6732 1
4489 6733 6734 1
4490 6733 6735 1
4491 6736 6737 1
4492 6736 6738 1
4493 6739 6740 1
4494 6739 6741 1
4495 6742 6743 1
4496 6742 6744 1
4497 6745 6746 1
4498 6745 6747 1
4499 6748 6749 1
4500 6748 6750 1
4501 6751 6752 1
4502 6751 6753 1
4503 6754 6755 1
4504 6754 6756 1
4505 6757 6758 1
4506 6757 6759 1
4507 6760 6761 1
4508 6760 6762 1
4509 6763 6764 1
4510 6763 6765 1
4511 6766 6767 1
4512 6766 6768 1
4513 6769 6770 1
4514 6769 6771 1
4515 6772 6773 1
4516 6772 6774 1
4517 6775 6776 1
4518 6775 6777 1
4519 6778 6779 1
4520 6778 6780 1
4521 6781 6782 1
4522 6781 6783 1
4523 6784 6785 1
4524 6784 6786 1
4525 6787 6788 1
4526 6787 6789 1
4527 6790 6791 1
4528 6790 6792 1
4529 6793 6794 1
4530 6793 6795 1
4531 6796 6797 1
4532 6796 6798 1
4533 6799 6800 1
4534 6799 6801 1
4535 6802 6803 1
4536 6802 6804 1
4537 6805 6806 1
4538 6805 6807 1
4539 6808 6809 1
4540 6808 6810 1
4541 6811 6812 1
4542 6811 6813 1
4543 6814 6815 1
4544 6814 6816 1
4545 6817 6818 1
4546 6817 6819 1
4547 6820 6821 1
4548 6820 6822 1
4549 6823 6824 1
4550 6823 6825 1
4551 6826 6827 1
4552 6826 6828 1
4553 6829 6830 1
4554 6829 6831 1
4555 6832 6833 1
4556 6832 6834 1
4557 6835 6836 1
4558 6835 6837 1
4559 6838 6839 1
4560 6838 6840 1
4561 6841 6842 1
4562 6841 6843 1
4563 6844 6845 1
4564 6844 6846 1
4565 6847 6848 1
4566 6847 6849 1
4567 6850 6851 1
4568 6850 6852 1
4569 6853 6854 1
4570 6853 6855 1
4571 6856 6857 1
4572 6856 6858 1
4573 6859 6860 1
4574 6859 6861 1
4575 6862 6863 1
4576 6862 6864 1
4577 6865 6866 1
4578 6865 6867 1
4579 6868 6869 1
4580 6868 6870 1
4581 6871 6872 1
4582 6871 6873 1
4583 6874 6875 1
4584 6874 6876 1
4585 6877 6878 1
4586 6877 6879 1
4587 6880 6881 1
4588 6880 6882 1
4589 6883 6884 1
4590 6883 6885 1
4591 6886 6887 1
4592 6886 6888 1
4593 6889 6890 1
4594 6889 6891 1
4595 6892 6893 1
4596 6892 6894 1
4597 6895 6896 1
4598 6895 6897 1
4599 6898 6899 1
4600 6898 6900 1
4601 6901 6902 1
4602 6901 6903 1
4603 6904 6905 1
4604 6904 6906 1
4605 6907 6908 1
4606 6907 6909 1
4607 6910 6911 1
4608 6910 6912 1
4609 6913 6914 1
4610 6913 6915 1
4611 6916 6917 1
4612 6916 6918 1
4613 6919 6920 1
4614 6919 6921 1
4615 6922 6923 1
4616 6922 6924 1
4617 6925 6926 1
4618 6925 6927 1
4619 6928 6929 1
4620 6928 6930 1
4621 6931 6932 1
4622 6931 6933 1
4623 6934 6935 1
4624 6934 6936 1
4625 6937 6938 1
4626 6937 6939 1
4627 6940 6941 1
4628 6940 6942 1
4629 6943 6944 1
4630 6943 6945 1
4631 6946 6947 1
4632 6946 6948 1
4633 6949 6950 1
4634 6949 6951 1
4635 6952 6953 1
4636 6952 6954 1
4637 6955 6956 1
4638 6955 6957 1
4639 6958 6959 1
4640 6958 6960 1
4641 6961 6962 1
4642 6961 6963 1
4643 6964 6965 1
4644 6964 6966 1
4645 6967 6968 1
4646 6967 6969 1
4647 6970 6971 1
4648 6970 6972 1
4649 6973 6974 1
4650 6973 6975 1
4651 6976 6977 1
4652 6976 6978 1
4653 6979 6980 1
4654 6979 6981 1
4655 6982 6983 1
4656 6982 6984 1
4657 6985 6986 1
4658 6985 6987 1
4659 6988 6989 1
4660 6988 6990 1
4661 6991 6992 1
4662 6991 6993 1
4663 6994 6995 1
4664 6994 6996 1
4665 6997 6998 1
4666 6997 6999 1
4667 7000 7001 1
4668 7000 7002 1
4669 7003 7004 1
4670 7003 7005 1
4671 7006 7007 1
4672 7006 7008 1
4673 7009 7010 1
4674 7009 7011 1
4675 7012 7013 1
4676 7012 7014 1
4677 7015 7016 1
4678 7015 7017 1
4679 7018 7019 1
4680 7018 7020 1
4681 7021 7022 1
4682 7021 7023 1
4683 7024 7025 1
4684 7024 7026 1
4685 7027 7028 1
4686 7027 7029 1
4687 7030 7031 1
4688 7030 7032 1
4689 7033 7034 1
4690 7033 7035 1
4691 7036 7037 1
4692 7036 7038 1
4693 7039 7040 1
4694 7039 7041 1
4695 7042 7043 1
4696 7042 7044 1
4697 7045 7046 1
4698 7045 7047 1
4699 7048 7049 1
4700 7048 7050 1
4701 7051 7052 1
4702 7051 7053 1
4703 7054 7055 1
4704 7054 7056 1
4705 7057 7058 1
4706 7057 7059 1
4707 7060 7061 1
4708 7060 7062 1
4709 7063 7064 1
4710 7063 7065 1
4711 7066 7067 1
4712 7066 7068 1
4713 7069 7070 1
4714 7069 7071 1
4715 7072 7073 1
4716 7072 7074 1
4717 7075 7076 1
4718 7075 7077 1
4719 7078 7079 1
4720 7078 7080 1
4721 7081 7082 1
4722 7081 7083 1
4723 7084 7085 1
4724 7084 7086 1
4725 7087 7088 1
4726 7087 7089 1
4727 7090 7091 1
4728 7090 7092 1
4729 7093 7094 1
4730 7093 7095 1
4731 7096 7097 1
4732 7096 7098 1
4733 7099 7100 1
4734 7099 7101 1
4735 7102 7103 1
4736 7102 7104 1
4737 7105 7106 1
4738 7105 7107 1
4739 7108 7109 1
4740 7108 7110 1
4741 7111 7112 1
4742 7111 7113 1
4743 7114 7115 1
4744 7114 7116 1
4745 7117 7118 1
4746 7117 7119 1
4747 7120 7121 1
4748 7120 7122 1
4749 7123 7124 1
4750 7123 7125 1
4751 7126 7127 1
4752 7126 7128 1
4753 7129 7130 1
4754 7129 7131 1
4755 7132 7133 1
4756 7132 7134 1
4757 7135 7136 1
4758 7135 7137 1
4759 7138 7139 1
4760 7138 7140 1
4761 7141 7142 1
4762 7141 7143 1
4763 7144 7145 1
4764 7144 7146 1
4765 7147 7148 1
4766 7147 7149 1
4767 7150 7151 1
4768 7150 7152 1
4769 7153 7154 1
4770 7153 7155 1
4771 7156 7157 1
4772 7156 7158 1
4773 7159 7160 1
4774 7159 7161 1
4775 7162 7163 1
4776 7162 7164 1
4777 7165 7166 1
4778 7165 7167 1
4779 7168 7169 1
4780 7168 7170 1
4781 7171 7172 1
4782 7171 7173 1
4783 7174 7175 1
4784 7174 7176 1
4785 7177 7178 1
4786 7177 7179 1
4787 7180 7181 1
4788 7180 7182 1
4789 7183 7184 1
4790 7183 7185 1
4791 7186 7187 1
4792 7186 7188 1
4793 7189 7190 1
4794 7189 7191 1
4795 7192 7193 1
4796 7192 7194 1
4797 7195 7196 1
4798 7195 7197 1
4799 7198 7199 1
4800 7198 7200 1
4801 7201 7202 1
4802 7201 7203 1
4803 7204 7205 1
4804 7204 7206 1
4805 7207 7208 1
4806 7207 7209 1
4807 7210 7211 1
4808 7210 7212 1
4809 7213 7214 1
4810 7213 7215 1
4811 7216 7217 1
4812 7216 7218 1
4813 7219 7220 1
4814 7219 7221 1
4815 7222 7223 1
4816 7222 7224 1
4817 7225 7226 1
4818 7225 7227 1
4819 7228 7229 1
4820 7228 7230 1
4821 7231 7232 1
4822 7231 7233 1
4823 7234 7235 1
4824 7234 7236 1
4825 7237 7238 1
4826 7237 7239 1
4827 7240 7241 1
4828 7240 7242 1
4829 7243 7244 1
4830 7243 7245 1
4831 7246 7247 1
4832 7246 7248 1
4833 7249 7250 1
4834 7249 7251 1
4835 7252 7253 1
4836 7252 7254 1
4837 7255 7256 1
4838 7255 7257 1
4839 7258 7259 1
4840 7258 7260 1
4841 7261 7262 1
4842 7261 7263 1
4843 7264 7265 1
4844 7264 7266 1
4845 7267 7268 1
4846 7267 7269 1
4847 7270 7271 1
4848 7270 7272 1
4849 7273 7274 1
4850 7273 7275 1
4851 7276 7277 1
4852 7276 7278 1
4853 7279 7280 1
4854 7279 7281 1
4855 7282 7283 1
4856 7282 7284 1
4857 7285 7286 1
4858 7285 7287 1
4859 7288 7289 1
4860 7288 7290 1
4861 7291 7292 1
4862 7291 7293 1
4863 7294 7295 1
4864 7294 7296 1
4865 7297 7298 1
4866 7297 7299 1
4867 7300 7301 1
4868 7300 7302 1
4869 7303 7304 1
4870 7303 7305 1
4871 7306 7307 1
4872 7306 7308 1
4873 7309 7310 1
4874 7309 7311 1
4875 7312 7313 1
4876 7312 7314 1
4877 7315 7316 1
4878 7315 7317 1
4879 7318 7319 1
4880 7318 7320 1
4881 7321 7322 1
4882 7321 7323 1
4883 7324 7325 1
4884 7324 7326 1
4885 7327 7328 1
4886 7327 7329 1
4887 7330 7331 1
4888 7330 7332 1
4889 7333 7334 1
4890 7333 7335 1
4891 7336 7337 1
4892 7336 7338 1
4893 7339 7340 1
4894 7339 7341 1
4895 7342 7343 1
4896 7342 7344 1
4897 7345 7346 1
4898 7345 7347 1
4899 7348 7349 1
4900 7348 7350 1
4901 7351 7352 1
4902 7351 7353 1
4903 7354 7355 1
4904 7354 7356 1
4905 7357 7358 1
4906 7357 7359 1
4907 7360 7361 1
4908 7360 7362 1
4909 7363 7364 1
4910 7363 7365 1
4911 7366 7367 1
4912 7366 7368 1
4913 7369 7370 1
4914 7369 7371 1
4915 7372 7373 1
4916 7372 7374 1
4917 7375 7376 1
4918 7375 7377 1
4919 7378 7379 1
4920 7378 7380 1
4921 7381 7382 1
4922 7381 7383 1
4923 7384 7385 1
4924 7384 7386 1
4925 7387 7388 1
4926 7387 7389 1
4927 7390 7391 1
4928 7390 7392 1
4929 7393 7394 1
4930 7393 7395 1
4931 7396 7397 1
4932 7396 7398 1
4933 7399 7400 1
4934 7399 7401 1
4935 7402 7403 1
4936 7402 7404 1
4937 7405 7406 1
4938 7405 7407 1
4939 7408 7409 1
4940 7408 7410 1
4941 7411 7412 1
4942 7411 7413 1
4943 7414 7415 1
4944 7414 7416 1
4945 7417 7418 1
4946 7417 7419 1
4947 7420 7421 1
4948 7420 7422 1
4949 7423 7424 1
4950 7423 7425 1
4951 7426 7427 1
4952 7426 7428 1
4953 7429 7430 1
4954 7429 7431 1
4955 7432 7433 1
4956 7432 7434 1
4957 7435 7436 1
4958 7435 7437 1
4959 7438 7439 1
4960 7438 7440 1
4961 7441 7442 1
4962 7441 7443 1
4963 7444 7445 1
4964 7444 7446 1
4965 7447 7448 1
4966 7447 7449 1
4967 7450 7451 1
4968 7450 7452 1
4969 7453 7454 1
4970 7453 7455 1
4971 7456 7457 1
4972 7456 7458 1
4973 7459 7460 1
4974 7459 7461 1
4975 7462 7463 1
4976 7462 7464 1
4977 7465 7466 1
4978 7465 7467 1
4979 7468 7469 1
4980 7468 7470 1
4981 7471 7472 1
4982 7471 7473 1
4983 7474 7475 1
4984 7474 7476 1
4985 7477 7478 1
4986 7477 7479 1
4987 7480 7481 1
4988 7480 7482 1
4989 7483 7484 1
4990 7483 7485 1
4991 7486 7487 1
4992 7486 7488 1
4993 7489 7490 1
4994 7489 7491 1
4995 7492 7493 1
4996 7492 7494 1
4997 7495 7496 1
4998 7495 7497 1
4999 7498 7499 1
5000 7498 7500 1
5001 7501 7502 1
5002 7501 7503 1
5003 7504 7505 1
5004 7504 7506 1
5005 7507 7508 1
5006 7507 7509 1
5007 7510 7511 1
5008 7510 7512 1
5009 7513 7514 1
5010 7513 7515 1
5011 7516 7517 1
5012 7516 7518 1
5013 7519 7520 1
5014 7519 7521 1
5015 7522 7523 1
5016 7522 7524 1
5017 7525 7526 1
5018 7525 7527 1
5019 7528 7529 1
5020 7528 7530 1
5021 7531 7532 1
5022 7531 7533 1
5023 7534 7535 1
5024 7534 7536 1
5025 7537 7538 1
5026 7537 7539 1
5027 7540 7541 1
5028 7540 7542 1
5029 7543 7544 1
5030 7543 7545 1
5031 7546 7547 1
5032 7546 7548 1
5033 7549 7550 1
5034 7549 7551 1
5035 7552 7553 1
5036 7552 7554 1
5037 7555 7556 1
5038 7555 7557 1
5039 7558 7559 1
5040 7558 7560 1
5041 7561 7562 1
5042 7561 7563 1
5043 7564 7565 1
5044 7564 7566 1
5045 7567 7568 1
5046 7567 7569 1
5047 7570 7571 1
5048 7570 7572 1
5049 7573 7574 1
5050 7573 7575 1
5051 7576 7577 1
5052 7576 7578 1
5053 7579 7580 1
5054 7579 7581 1
5055 7582 7583 1
5056 7582 7584 1
5057 7585 7586 1
5058 7585 7587 1
5059 7588 7589 1
5060 7588 7590 1
5061 7591 7592 1
5062 7591 7593 1
5063 7594 7595 1
5064 7594 7596 1
5065 7597 7598 1
5066 7597 7599 1
5067 7600 7601 1
5068 7600 7602 1
5069 7603 7604 1
5070 7603 7605 1
5071 7606 7607 1
5072 7606 7608 1
5073 7609 7610 1
5074 7609 7611 1
5075 7612 7613 1
5076 7612 7614 1
5077 7615 7616 1
5078 7615 7617 1
5079 7618 7619 1
5080 7618 7620 1
5081 7621 7622 1
5082 7621 7623 1
5083 7624 7625 1
5084 7624 7626 1
5085 7627 7628 1
5086 7627 7629 1
5087 7630 7631 1
5088 7630 7632 1
5089 7633 7634 1
5090 7633 7635 1
5091 7636 7637 1
5092 7636 7638 1
5093 7639 7640 1
5094 7639 7641 1
5095 7642 7643 1
5096 7642 7644 1
5097 7645 7646 1
5098 7645 7647 1
5099 7648 7649 1
5100 7648 7650 1
5101 7651 7652 1
5102 7651 7653 1
5103 7654 7655 1
5104 7654 7656 1
5105 7657 7658 1
5106 7657 7659 1
5107 7660 7661 1
5108 7660 7662 1
5109 7663 7664 1
5110 7663 7665 1
5111 7666 7667 1
5112 7666 7668 1
5113 7669 7670 1
5114 7669 7671 1
5115 7672 7673 1
5116 7672 7674 1
5117 7675 7676 1
5118 7675 7677 1
5119 7678 7679 1
5120 7678 7680 1
5121 7681 7682 1
5122 7681 7683 1
5123 7684 7685 1
5124 7684 7686 1
5125 7687 7688 1
5126 7687 7689 1
5127 7690 7691 1
5128 7690 7692 1
5129 7693 7694 1
5130 7693 7695 1
5131 7696 7697 1
5132 7696 7698 1
5133 7699 7700 1
5134 7699 7701 1
5135 7702 7703 1
5136 7702 7704 1
5137 7705 7706 1
5138 7705 7707 1
5139 7708 7709 1
5140 7708 7710 1
5141 7711 7712 1
5142 7711 7713 1
5143 7714 7715 1
5144 7714 7716 1
5145 7717 7718 1
5146 7717 7719 1
5147 7720 7721 1
5148 7720 7722 1
5149 7723 7724 1
5150 7723 7725 1
5151 7726 7727 1
5152 7726 7728 1
5153 7729 7730 1
5154 7729 7731 1
5155 7732 7733 1
5156 7732 7734 1
5157 7735 7736 1
5158 7735 7737 1
5159 7738 7739 1
5160 7738 7740 1
5161 7741 7742 1
5162 7741 7743 1
5163 7744 7745 1
5164 7744 7746 1
5165 7747 7748 1
5166 7747 7749 1
5167 7750 7751 1
5168 7750 7752 1
5169 7753 7754 1
5170 7753 7755 1
5171 7756 7757 1
5172 7756 7758 1
5173 7759 7760 1
5174 7759 7761 1
5175 7762 7763 1
5176 7762 7764 1
5177 7765 7766 1
5178 7765 7767 1
5179 7768 7769 1
5180 7768 7770 1
5181 7771 7772 1
5182 7771 7773 1
5183 7774 7775 1
5184 7774 7776 1
5185 7777 7778 1
5186 7777 7779 1
5187 7780 7781 1
5188 7780 7782 1
5189 7783 7784 1
5190 7783 7785 1
5191 7786 7787 1
5192 7786 7788 1
5193 7789 7790 1
5194 7789 7791 1
5195 7792 7793 1
5196 7792 7794 1
5197 7795 7796 1
5198 7795 7797 1
5199 7798 7799 1
5200 7798 7800 1
5201 7801 7802 1
5202 7801 7803 1
5203 7804 7805 1
5204 7804 7806 1
5205 7807 7808 1
5206 7807 7809 1
5207 7810 7811 1
5208 7810 7812 1
5209 7813 7814 1
5210 7813 7815 1
5211 7816 7817 1
5212 7816 7818 1
5213 7819 7820 1
5214 7819 7821 1
5215 7822 7823 1
5216 7822 7824 1
5217 7825 7826 1
5218 7825 7827 1
5219 7828 7829 1
5220 7828 7830 1
5221 7831 7832 1
5222 7831 7833 1
5223 7834 7835 1
5224 7834 7836 1
5225 7837 7838 1
5226 7837 7839 1
5227 7840 7841 1
5228 7840 7842 1
5229 7843 7844 1
5230 7843 7845 1
5231 7846 7847 1
5232 7846 7848 1
5233 7849 7850 1
5234 7849 7851 1
5235 7852 7853 1
5236 7852 7854 1
5237 7855 7856 1
5238 7855 7857 1
5239 7858 7859 1
5240 7858 7860 1
5241 7861 7862 1
5242 7861 7863 1
5243 7864 7865 1
5244 7864 7866 1
5245 7867 7868 1
5246 7867 7869 1
5247 7870 7871 1
5248 7870 7872 1
5249 7873 7874 1
5250 7873 7875 1
5251 7876 7877 1
5252 7876 7878 1
5253 7879 7880 1
5254 7879 7881 1
5255 7882 7883 1
5256 7882 7884 1
5257 7885 7886 1
5258 7885 7887 1
5259 7888 7889 1
5260 7888 7890 1
5261 7891 7892 1
5262 7891 7893 1
5263 7894 7895 1
5264 7894 7896 1
5265 7897 7898 1
5266 7897 7899 1
5267 7900 7901 1
5268 7900 7902 1
5269 7903 7904 1
5270 7903 7905 1
5271 7906 7907 1
5272 7906 7908 1
5273 7909 7910 1
5274 7909 7911 1
5275 7912 7913 1
5276 7912 7914 1
5277 7915 7916 1
5278 7915 7917 1
5279 7918 7919 1
5280 7918 7920 1
5281 7921 7922 1
5282 7921 7923 1
5283 7924 7925 1
5284 7924 7926 1
5285 7927 7928 1
5286 7927 7929 1
5287 7930 7931 1
5288 7930 7932 1
5289 7933 7934 1
5290 7933 7935 1
5291 7936 7937 1
5292 7936 7938 1
5293 7939 7940 1
5294 7939 7941 1
5295 7942 7943 1
5296 7942 7944 1
5297 7945 7946 1
5298 7945 7947 1
5299 7948 7949 1
5300 7948 7950 1
5301 7951 7952 1
5302 7951 7953 1
5303 7954 7955 1
5304 7954 7956 1
5305 7957 7958 1
5306 7957 7959 1
5307 7960 7961 1
5308 7960 7962 1
5309 7963 7964 1
5310 7963 7965 1
5311 7966 7967 1
5312 7966 7968 1
5313 7969 7970 1
5314 7969 7971 1
5315 7972 7973 1
5316 7972 7974 1
5317 7975 7976 1
5318 7975 7977 1
5319 7978 7979 1
5320 7978 7980 1
5321 7981 7982 1
5322 7981 7983 1
5323 7984 7985 1
5324 7984 7986 1
5325 7987 7988 1
5326 7987 7989 1
5327 7990 7991 1
5328 7990 7992 1
5329 7993 7994 1
5330 7993 7995 1
5331 7996 7997 1
5332 7996 7998 1
5333 7999 8000 1
5334 7999 8001 1
5335 8002 8003 1
5336 8002 8004 1
5337 8005 8006 1
5338 8005 8007 1
5339 8008 8009 1
5340 8008 8010 1
5341 8011 8012 1
5342 8011 8013 1
5343 8014 8015 1
5344 8014 8016 1
5345 8017 8018 1
5346 8017 8019 1
5347 8020 8021 1
5348 8020 8022 1
5349 8023 8024 1
5350 8023 8025 1
5351 8026 8027 1
5352 8026 8028 1
5353 8029 8030 1
5354 8029 8031 1
5355 8032 8033 1
5356 8032 8034 1
5357 8035 8036 1
5358 8035 8037 1
5359 8038 8039 1
5360 8038 8040 1
5361 8041 8042 1
5362 8041 8043 1
5363 8044 8045 1
5364 8044 8046 1
5365 8047 8048 1
5366 8047 8049 1
5367 8050 8051 1
5368 8050 8052 1
5369 8053 8054 1
5370 8053 8055 1
5371 8056 8057 1
5372 8056 8058 1
5373 8059 8060 1
5374 8059 8061 1
5375 8062 8063 1
5376 8062 8064 1
5377 8065 8066 1
5378 8065 8067 1
5379 8068 8069 1
5380 8068 8070 1
5381 8071 8072 1
5382 8071 8073 1
5383 8074 8075 1
5384 8074 8076 1
5385 8077 8078 1
5386 8077 8079 1
5387 8080 8081 1
5388 8080 8082 1
5389 8083 8084 1
5390 8083 8085 1
5391 8086 8087 1
5392 8086 8088 1
5393 8089 8090 1
5394 8089 8091 1
5395 8092 8093 1
5396 8092 8094 1
5397 8095 8096 1
5398 8095 8097 1
5399 8098 8099 1
5400 8098 8100 1
5401 8101 8102 1
5402 8101 8103 1
5403 8104 8105 1
5404 8104 8106 1
5405 8107 8108 1
5406 8107 8109 1
5407 8110 8111 1
5408 8110 8112 1
5409 8113 8114 1
5410 8113 8115 1
5411 8116 8117 1
5412 8116 8118 1
5413 8119 8120 1
5414 8119 8121 1
5415 8122 8123 1
5416 8122 8124 1
5417 8125 8126 1
5418 8125 8127 1
5419 8128 8129 1
5420 8128 8130 1
5421 8131 8132 1
5422 8131 8133 1
5423 8134 8135 1
5424 8134 8136 1
5425 8137 8138 1
5426 8137 8139 1
5427 8140 8141 1
5428 8140 8142 1
5429 8143 8144 1
5430 8143 8145 1
5431 8146 8147 1
5432 8146 8148 1
5433 8149 8150 1
5434 8149 8151 1
5435 8152 8153 1
5436 8152 8154 1
5437 8155 8156 1
5438 8155 8157 1
5439 8158 8159 1
5440 8158 8160 1
5441 8161 8162 1
5442 8161 8163 1
5443 8164 8165 1
5444 8164 8166 1
5445 8167 8168 1
5446 8167 8169 1
5447 8170 8171 1
5448 8170 8172 1
5449 8173 8174 1
5450 8173 8175 1
5451 8176 8177 1
5452 8176 8178 1
5453 8179 8180 1
5454 8179 8181 1
5455 8182 8183 1
5456 8182 8184 1
5457 8185 8186 1
5458 8185 8187 1
5459 8188 8189 1
5460 8188 8190 1
5461 8191 8192 1
5462 8191 8193 1
5463 8194 8195 1
5464 8194 8196 1
5465 8197 8198 1
5466 8197 8199 1
5467 8200 8201 1
5468 8200 8202 1
5469 8203 8204 1
5470 8203 8205 1
5471 8206 8207 1
5472 8206 8208 1
5473 8209 8210 1
5474 8209 8211 1
5475 8212 8213 1
5476 8212 8214 1
5477 8215 8216 1
5478 8215 8217 1
5479 8218 8219 1
5480 8218 8220 1
5481 8221 8222 1
5482 8221 8223 1
5483 8224 8225 1
5484 8224 8226 1
5485 8227 8228 1
5486 8227 8229 1
5487 8230 8231 1
5488 8230 8232 1
5489 8233 8234 1
5490 8233 8235 1
5491 8236 8237 1
5492 8236 8238 1
5493 8239 8240 1
5494 8239 8241 1
5495 8242 8243 1
5496 8242 8244 1
5497 8245 8246 1
5498 8245 8247 1
5499 8248 8249 1
5500 8248 8250 1
5501 8251 8252 1
5502 8251 8253 1
5503 8254 8255 1
5504 8254 8256 1
5505 8257 8258 1
5506 8257 8259 1
5507 8260 8261 1
5508 8260 8262 1
5509 8263 8264 1
5510 8263 8265 1
5511 8266 8267 1
5512 8266 8268 1
5513 8269 8270 1
5514 8269 8271 1
5515 8272 8273 1
5516 8272 8274 1
5517 8275 8276 1
5518 8275 8277 1
5519 8278 8279 1
5520 8278 8280 1
5521 8281 8282 1
5522 8281 8283 1
5523 8284 8285 1
5524 8284 8286 1
5525 8287 8288 1
5526 8287 8289 1
5527 8290 8291 1
5528 8290 8292 1
5529 8293 8294 1
5530 8293 8295 1
5531 8296 8297 1
5532 8296 8298 1
5533 8299 8300 1
5534 8299 8301 1
5535 8302 8303 1
5536 8302 8304 1
5537 8305 8306 1
5538 8305 8307 1
5539 8308 8309 1
5540 8308 8310 1
5541 8311 8312 1
5542 8311 8313 1
5543 8314 8315 1
5544 8314 8316 1
5545 8317 8318 1
5546 8317 8319 1
5547 8320 8321 1
5548 8320 8322 1
5549 8323 8324 1
5550 8323 8325 1
5551 8326 8327 1
5552 8326 8328 1
5553 8329 8330 1
5554 8329 8331 1
5555 8332 8333 1
5556 8332 8334 1
5557 8335 8336 1
5558 8335 8337 1
5559 8338 8339 1
5560 8338 8340 1
5561 8341 8342 1
5562 8341 8343 1
5563 8344 8345 1
5564 8344 8346 1
5565 8347 8348 1
5566 8347 8349 1
5567 8350 8351 1
5568 8350 8352 1
5569 8353 8354 1
5570 8353 8355 1
5571 8356 8357 1
5572 8356 8358 1
5573 8359 8360 1
5574 8359 8361 1
5575 8362 8363 1
5576 8362 8364 1
5577 8365 8366 1
5578 8365 8367 1
5579 8368 8369 1
5580 8368 8370 1
5581 8371 8372 1
5582 8371 8373 1
5583 8374 8375 1
5584 8374 8376 1
5585 8377 8378 1
5586 8377 8379 1
5587 8380 8381 1
5588 8380 8382 1
5589 8383 8384 1
5590 8383 8385 1
5591 8386 8387 1
5592 8386 8388 1
5593 8389 8390 1
5594 8389 8391 1
5595 8392 8393 1
5596 8392 8394 1
5597 8395 8396 1
5598 8395 8397 1
5599 8398 8399 1
5600 8398 8400 1
5601 8401 8402 1
5602 8401 8403 1
5603 8404 8405 1
5604 8404 8406 1
5605 8407 8408 1
5606 8407 8409 1
5607 8410 8411 1
5608 8410 8412 1
5609 8413 8414 1
5610 8413 8415 1
5611 8416 8417 1
5612 8416 8418 1
5613 8419 8420 1
5614 8419 8421 1
5615 8422 8423 1
5616 8422 8424 1
5617 8425 8426 1
5618 8425 8427 1
5619 8428 8429 1
5620 8428 8430 1
5621 8431 8432 1
5622 8431 8433 1
5623 8434 8435 1
5624 8434 8436 1
5625 8437 8438 1
5626 8437 8439 1
5627 8440 8441 1
5628 8440 8442 1
5629 8443 8444 1
5630 8443 8445 1
5631 8446 8447 1
5632 8446 8448 1
5633 8449 8450 1
5634 8449 8451 1
5635 8452 8453 1
5636 8452 8454 1
5637 8455 8456 1
5638 8455 8457 1
5639 8458 8459 1
5640 8458 8460 1
5641 8461 8462 1
5642 8461 8463 1
5643 8464 8465 1
5644 8464 8466 1
5645 8467 8468 1
5646 8467 8469 1
5647 8470 8471 1
5648 8470 8472 1
5649 8473 8474 1
5650 8473 8475 1
5651 8476 8477 1
5652 8476 8478 1
5653 8479 8480 1
5654 8479 8481 1
5655 8482 8483 1
5656 8482 8484 1
5657 8485 8486 1
5658 8485 8487 1
5659 8488 8489 1
5660 8488 8490 1
5661 8491 8492 1
5662 8491 8493 1
5663 8494 8495 1
5664 8494 8496 1
5665 8497 8498 1
5666 8497 8499 1
5667 8500 8501 1
5668 8500 8502 1
5669 8503 8504 1
5670 8503 8505 1
5671 8506 8507 1
5672 8506 8508 1
5673 8509 8510 1
5674 8509 8511 1
5675 8512 8513 1
5676 8512 8514 1
5677 8515 8516 1
5678 8515 8517 1
5679 8518 8519 1
5680 8518 8520 1
5681 8521 8522 1
5682 8521 8523 1
5683 8524 8525 1
5684 8524 8526 1
5685 8527 8528 1
5686 8527 8529 1
5687 8530 8531 1
5688 8530 8532 1
5689 8533 8534 1
5690 8533 8535 1
5691 8536 8537 1
5692 8536 8538 1
5693 8539 8540 1
5694 8539 8541 1
5695 8542 8543 1
5696 8542 8544 1
5697 8545 8546 1
5698 8545 8547 1
5699 8548 8549 1
5700 8548 8550 1
5701 8551 8552 1
5702 8551 8553 1
5703 8554 8555 1
5704 8554 8556 1
5705 8557 8558 1
5706 8557 8559 1
5707 8560 8561 1
5708 8560 8562 1
5709 8563 8564 1
5710 8563 8565 1
5711 8566 8567 1
5712 8566 8568 1
5713 8569 8570 1
5714 8569 8571 1
5715 8572 8573 1
5716 8572 8574 1
5717 8575 8576 1
5718 8575 8577 1
5719 8578 8579 1
5720 8578 8580 1
5721 8581 8582 1
5722 8581 8583 1
5723 8584 8585 1
5724 8584 8586 1
5725 8587 8588 1
5726 8587 8589 1
5727 8590 8591 1
5728 8590 8592 1
5729 8593 8594 1
5730 8593 8595 1
5731 8596 8597 1
5732 8596 8598 1
5733 8599 8600 1
5734 8599 8601 1
5735 8602 8603 1
5736 8602 8604 1
5737 8605 8606 1
5738 8605 8607 1
5739 8608 8609 1
5740 8608 8610 1
5741 8611 8612 1
5742 8611 8613 1
5743 8614 8615 1
5744 8614 8616 1
5745 8617 8618 1
5746 8617 8619 1
5747 8620 8621 1
5748 8620 8622 1
5749 8623 8624 1
5750 8623 8625 1
5751 8626 8627 1
5752 8626 8628 1
5753 8629 8630 1
5754 8629 8631 1
5755 8632 8633 1
5756 8632 8634 1
5757 8635 8636 1
5758 8635 8637 1
5759 8638 8639 1
5760 8638 8640 1
5761 8641 8642 1
5762 8641 8643 1
5763 8644 8645 1
5764 8644 8646 1
5765 8647 8648 1
5766 8647 8649 1
5767 8650 8651 1
5768 8650 8652 1
5769 8653 8654 1
5770 8653 8655 1
5771 8656 8657 1
5772 8656 8658 1
5773 8659 8660 1
5774 8659 8661 1
5775 8662 8663 1
5776 8662 8664 1
5777 8665 8666 1
5778 8665 8667 1
5779 8668 8669 1
5780 8668 8670 1
5781 8671 8672 1
5782 8671 8673 1
5783 8674 8675 1
5784 8674 8676 1
5785 8677 8678 1
5786 8677 8679 1
5787 8680 8681 1
5788 8680 8682 1
5789 8683 8684 1
5790 8683 8685 1
5791 8686 8687 1
5792 8686 8688 1
5793 8689 8690 1
5794 8689 8691 1
5795 8692 8693 1
5796 8692 8694 1
5797 8695 8696 1
5798 8695 8697 1
5799 8698 8699 1
5800 8698 8700 1
5801 8701 8702 1
5802 8701 8703 1
5803 8704 8705 1
5804 8704 8706 1
5805 8707 8708 1
5806 8707 8709 1
5807 8710 8711 1
5808 8710 8712 1
5809 8713 8714 1
5810 8713 8715 1
5811 8716 8717 1
5812 8716 8718 1
5813 8719 8720 1
5814 8719 8721 1
5815 8722 8723 1
5816 8722 8724 1
5817 8725 8726 1
5818 8725 8727 1
5819 8728 8729 1
5820 8728 8730 1
5821 8731 8732 1
5822 8731 8733 1
5823 8734 8735 1
5824 8734 8736 1
5825 8737 8738 1
5826 8737 8739 1
5827 8740 8741 1
5828 8740 8742 1
5829 8743 8744 1
5830 8743 8745 1
5831 8746 8747 1
5832 8746 8748 1
5833 8749 8750 1
5834 8749 8751 1
5835 8752 8753 1
5836 8752 8754 1
5837 8755 8756 1
5838 8755 8757 1
5839 8758 8759 1
5840 8758 8760 1
5841 8761 8762 1
5842 8761 8763 1
5843 8764 8765 1
5844 8764 8766 1
5845 8767 8768 1
5846 8767 8769 1
5847 8770 8771 1
5848 8770 8772 1
5849 8773 8774 1
5850 8773 8775 1
5851 8776 8777 1
5852 8776 8778 1
5853 8779 8780 1
5854 8779 8781 1
5855 8782 8783 1
5856 8782 8784 1
5857 8785 8786 1
5858 8785 8787 1
5859 8788 8789 1
5860 8788 8790 1
5861 8791 8792 1
5862 8791 8793 1
5863 8794 8795 1
5864 8794 8796 1
5865 8797 8798 1
5866 8797 8799 1
5867 8800 8801 1
5868 8800 8802 1
5869 8803 8804 1
5870 8803 8805 1
5871 8806 8807 1
5872 8806 8808 1
5873 8809 8810 1
5874 8809 8811 1
5875 8812 8813 1
5876 8812 8814 1
5877 8815 8816 1
5878 8815 8817 1
5879 8818 8819 1
5880 8818 8820 1
5881 8821 8822 1
5882 8821 8823 1
5883 8824 8825 1
5884 8824 8826 1
5885 8827 8828 1
5886 8827 8829 1
5887 8830 8831 1
5888 8830 8832 1
5889 8833 8834 1
5890 8833 8835 1
5891 8836 8837 1
5892 8836 8838 1
5893 8839 8840 1
5894 8839 8841 1
5895 8842 8843 1
5896 8842 8844 1
5897 8845 8846 1
5898 8845 8847 1
5899 8848 8849 1
5900 8848 8850 1
5901 8851 8852 1
5902 8851 8853 1
5903 8854 8855 1
5904 8854 8856 1
5905 8857 8858 1
5906 8857 8859 1
5907 8860 8861 1
5908 8860 8862 1
5909 8863 8864 1
5910 8863 8865 1
5911 8866 8867 1
5912 8866 8868 1
5913 8869 8870 1
5914 8869 8871 1
5915 8872 8873 1
5916 8872 8874 1
5917 8875 8876 1
5918 8875 8877 1
5919 8878 8879 1
5920 8878 8880 1
5921 8881 8882 1
5922 8881 8883 1
5923 8884 8885 1
5924 8884 8886 1
5925 8887 8888 1
5926 8887 8889 1
5927 8890 8891 1
5928 8890 8892 1
5929 8893 8894 1
5930 8893 8895 1
5931 8896 8897 1
5932 8896 8898 1
5933 8899 8900 1
5934 8899 8901 1
5935 8902 8903 1
5936 8902 8904 1
5937 8905 8906 1
5938 8905 8907 1
5939 8908 8909 1
5940 8908 8910 1
5941 8911 8912 1
5942 8911 8913 1
5943 8914 8915 1
5944 8914 8916 1
5945 8917 8918 1
5946 8917 8919 1
5947 8920 8921 1
5948 8920 8922 1
5949 8923 8924 1
5950 8923 8925 1
5951 8926 8927 1
5952 8926 8928 1
5953 8929 8930 1
5954 8929 8931 1
5955 8932 8933 1
5956 8932 8934 1
5957 8935 8936 1
5958 8935 8937 1
5959 8938 8939 1
5960 8938 8940 1
5961 8941 8942 1
5962 8941 8943 1
5963 8944 8945 1
5964 8944 8946 1
5965 8947 8948 1
5966 8947 8949 1
5967 8950 8951 1
5968 8950 8952 1
5969 8953 8954 1
5970 8953 8955 1
5971 8956 8957 1
5972 8956 8958 1
5973 8959 8960 1
5974 8959 8961 1
5975 8962 8963 1
5976 8962 8964 1
5977 8965 8966 1
5978 8965 8967 1
5979 8968 8969 1
5980 8968 8970 1
5981 8971 8972 1
5982 8971 8973 1
5983 8974 8975 1
5984 8974 8976 1
5985 8977 8978 1
5986 8977 8979 1
5987 8980 8981 1
5988 8980 8982 1
5989 8983 8984 1
5990 8983 8985 1
5991 8986 8987 1
5992 8986 8988 1
5993 8989 8990 1
5994 8989 8991 1
5995 8992 8993 1
5996 8992 8994 1
5997 8995 8996 1
5998 8995 8997 1
5999 8998 8999 1
6000 8998 9000 1
6001 9001 9002 1
6002 9001 9003 1
6003 9004 9005 1
6004 9004 9006 1
6005 9007 9008 1
6006 9007 9009 1
6007 9010 9011 1
6008 9010 9012 1
6009 9013 9014 1
6010 9013 9015 1
6011 9016 9017 1
6012 9016 9018 1
6013 9019 9020 1
6014 9019 9021 1
6015 9022 9023 1
6016 9022 9024 1
6017 9025 9026 1
6018 9025 9027 1
6019 9028 9029 1
6020 9028 9030 1
6021 9031 9032 1
6022 9031 9033 1
6023 9034 9035 1
6024 9034 9036 1
6025 9037 9038 1
6026 9037 9039 1
6027 9040 9041 1
6028 9040 9042 1
6029 9043 9044 1
6030 9043 9045 1
6031 9046 9047 1
6032 9046 9048 1
6033 9049 9050 1
6034 9049 9051 1
6035 9052 9053 1
6036 9052 9054 1
6037 9055 9056 1
6038 9055 9057 1
6039 9058 9059 1
6040 9058 9060 1
6041 9061 9062 1
6042 9061 9063 1
6043 9064 9065 1
6044 9064 9066 1
6045 9067 9068 1
6046 9067 9069 1
6047 9070 9071 1
6048 9070 9072 1
6049 9073 9074 1
6050 9073 9075 1
6051 9076 9077 1
6052 9076 9078 1
6053 9079 9080 1
6054 9079 9081 1
6055 9082 9083 1
6056 9082 9084 1
6057 9085 9086 1
6058 9085 9087 1
6059 9088 9089 1
6060 9088 9090 1
6061 9091 9092 1
6062 9091 9093 1
6063 9094 9095 1
6064 9094 9096 1
6065 9097 9098 1
6066 9097 9099 1
6067 9100 9101 1
6068 9100 9102 1
6069 9103 9104 1
6070 9103 9105 1
6071 9106 9107 1
6072 9106 9108 1
6073 9109 9110 1
6074 9109 9111 1
6075 9112 9113 1
6076 9112 9114 1
6077 9115 9116 1
6078 9115 9117 1
6079 9118 9119 1
6080 9118 9120 1
6081 9121 9122 1
6082 9121 9123 1
6083 9124 9125 1
6084 9124 9126 1
6085 9127 9128 1
6086 9127 9129 1
6087 9130 9131 1
6088 9130 9132 1
6089 9133 9134 1
6090 9133 9135 1
6091 9136 9137 1
6092 9136 9138 1
6093 9139 9140 1
6094 9139 9141 1
6095 9142 9143 1
6096 9142 9144 1
6097 9145 9146 1
6098 9145 9147 1
6099 9148 9149 1
6100 9148 9150 1
6101 9151 9152 1
6102 9151 9153 1
6103 9154 9155 1
6104 9154 9156 1
6105 9157 9158 1
6106 9157 9159 1
6107 9160 9161 1
6108 9160 9162 1
6109 9163 9164 1
6110 9163 9165 1
6111 9166 9167 1
6112 9166 9168 1
6113 9169 9170 1
6114 9169 9171 1
6115 9172 9173 1
6116 9172 9174 1
6117 9175 9176 1
6118 9175 9177 1
6119 9178 9179 1
6120 9178 9180 1
6121 9181 9182 1
6122 9181 9183 1
6123 9184 9185 1
6124 9184 9186 1
6125 9187 9188 1
6126 9187 9189 1
6127 9190 9191 1
6128 9190 9192 1
6129 9193 9194 1
6130 9193 9195 1
6131 9196 9197 1
6132 9196 9198 1
6133 9199 9200 1
6134 9199 9201 1
6135 9202 9203 1
6136 9202 9204 1
6137 9205 9206 1
6138 9205 9207 1
6139 9208 9209 1
6140 9208 9210 1
6141 9211 9212 1
6142 9211 9213 1
6143 9214 9215 1
6144 9214 9216 1
6145 9217 9218 1
6146 9217 9219 1
6147 9220 9221 1
6148 9220 9222 1
6149 9223 9224 1
6150 9223 9225 1
6151 9226 9227 1
6152 9226 9228 1
6153 9229 9230 1
6154 9229 9231 1
6155 9232 9233 1
6156 9232 9234 1
6157 9235 9236 1
6158 9235 9237 1
6159 9238 9239 1
6160 9238 9240 1
6161 9241 9242 1
6162 9241 9243 1
6163 9244 9245 1
6164 9244 9246 1
6165 9247 9248 1
6166 9247 9249 1
6167 9250 9251 1
6168 9250 9252 1
6169 9253 9254 1
6170 9253 9255 1
6171 9256 9257 1
6172 9256 9258 1
6173 9259 9260 1
6174 9259 9261 1
6175 9262 9263 1
6176 9262 9264 1
6177 9265 9266 1
6178 9265 9267 1
6179 9268 9269 1
6180 9268 9270 1
6181 9271 9272 1
6182 9271 9273 1
6183 9274 9275 1
6184 9274 9276 1
6185 9277 9278 1
6186 9277 9279 1
6187 9280 9281 1
6188 9280 9282 1
6189 9283 9284 1
6190 9283 9285 1
6191 9286 9287 1
6192 9286 9288 1
6193 9289 9290 1
6194 9289 9291 1
6195 9292 9293 1
6196 9292 9294 1
6197 9295 9296 1
6198 9295 9297 1
6199 9298 9299 1
6200 9298 9300 1
6201 9301 9302 1
6202 9301 9303 1
6203 9304 9305 1
6204 9304 9306 1
6205 9307 9308 1
6206 9307 9309 1
6207 9310 9311 1
6208 9310 9312 1
6209 9313 9314 1
6210 9313 9315 1
6211 9316 9317 1
6212 9316 9318 1
6213 9319 9320 1
6214 9319 9321 1
6215 9322 9323 1
6216 9322 9324 1
6217 9325 9326 1
6218 9325 9327 1
6219 9328 9329 1
6220 9328 9330 1
6221 9331 9332 1
6222 9331 9333 1
6223 9334 9335 1
6224 9334 9336 1
6225 9337 9338 1
6226 9337 9339 1
6227 9340 9341 1
6228 9340 9342 1
6229 9343 9344 1
6230 9343 9345 1
6231 9346 9347 1
6232 9346 9348 1
6233 9349 9350 1
6234 9349 9351 1
6235 9352 9353 1
6236 9352 9354 1
6237 9355 9356 1
6238 9355 9357 1
6239 9358 9359 1
6240 9358 9360 1
6241 9361 9362 1
6242 9361 9363 1
6243 9364 9365 1
6244 9364 9366 1
6245 9367 9368 1
6246 9367 9369 1
6247 9370 9371 1
6248 9370 9372 1
6249 9373 9374 1
6250 9373 9375 1
6251 9376 9377 1
6252 9376 9378 1
6253 9379 9380 1
6254 9379 9381 1
6255 9382 9383 1
6256 9382 9384 1
6257 9385 9386 1
6258 9385 9387 1
6259 9388 9389 1
6260 9388 9390 1
6261 9391 9392 1
6262 9391 9393 1
6263 9394 9395 1
6264 9394 9396 1
6265 9397 9398 1
6266 9397 9399 1
6267 9400 9401 1
6268 9400 9402 1
6269 9403 9404 1
6270 9403 9405 1
6271 9406 9407 1
6272 9406 9408 1
6273 9409 9410 1
6274 9409 9411 1
6275 9412 9413 1
6276 9412 9414 1
6277 9415 9416 1
6278 9415 9417 1
6279 9418 9419 1
6280 9418 9420 1
6281 9421 9422 1
6282 9421 9423 1
6283 9424 9425 1
6284 9424 9426 1
6285 9427 9428 1
6286 9427 9429 1
6287 9430 9431 1
6288 9430 9432 1
6289 9433 9434 1
6290 9433 9435 1
6291 9436 9437 1
6292 9436 9438 1
6293 9439 9440 1
6294 9439 9441 1
6295 9442 9443 1
6296 9442 9444 1
6297 9445 9446 1
6298 9445 9447 1
6299 9448 9449 1
6300 9448 9450 1
6301 9451 9452 1
6302 9451 9453 1
6303 9454 9455 1
6304 9454 9456 1
6305 9457 9458 1
6306 9457 9459 1
6307 9460 9461 1
6308 9460 9462 1
6309 9463 9464 1
6310 9463 9465 1
6311 9466 9467 1
6312 9466 9468 1
6313 9469 9470 1
6314 9469 9471 1
6315 9472 9473 1
6316 9472 9474 1
6317 9475 9476 1
6318 9475 9477 1
6319 9478 9479 1
6320 9478 9480 1
6321 9481 9482 1
6322 9481 9483 1
6323 9484 9485 1
6324 9484 9486 1
6325 9487 9488 1
6326 9487 9489 1
6327 9490 9491 1
6328 9490 9492 1
6329 9493 9494 1
6330 9493 9495 1
6331 9496 9497 1
6332 9496 9498 1
6333 9499 9500 1
6334 9499 9501 1
6335 9502 9503 1
6336 9502 9504 1
6337 9505 9506 1
6338 9505 9507 1
6339 9508 9509 1
6340 9508 9510 1
6341 9511 9512 1
6342 9511 9513 1
6343 9514 9515 1
6344 9514 9516 1
6345 9517 9518 1
6346 9517 9519 1
6347 9520 9521 1
6348 9520 9522 1
6349 9523 9524 1
6350 9523 9525 1
6351 9526 9527 1
6352 9526 9528 1
6353 9529 9530 1
6354 9529 9531 1
6355 9532 9533 1
6356 9532 9534 1
6357 9535 9536 1
6358 9535 9537 1
6359 9538 9539 1
6360 9538 9540 1
6361 9541 9542 1
6362 9541 9543 1
6363 9544 9545 1
6364 9544 9546 1
6365 9547 9548 1
6366 9547 9549 1
6367 9550 9551 1
6368 9550 9552 1
6369 9553 9554 1
6370 9553 9555 1
6371 9556 9557 1
6372 9556 9558 1
6373 9559 9560 1
6374 9559 9561 1
6375 9562 9563 1
6376 9562 9564 1
6377 9565 9566 1
6378 9565 9567 1
6379 9568 9569 1
6380 9568 9570 1
6381 9571 9572 1
6382 9571 9573 1
6383 9574 9575 1
6384 9574 9576 1
6385 9577 9578 1
6386 9577 9579 1
6387 9580 9581 1
6388 9580 9582 1
6389 9583 9584 1
6390 9583 9585 1
6391 9586 9587 1
6392 9586 9588 1
6393 9589 9590 1
6394 9589 9591 1
6395 9592 9593 1
6396 9592 9594 1
6397 9595 9596 1
6398 9595 9597 1
6399 9598 9599 1
6400 9598 9600 1
6401 9601 9602 1
6402 9601 9603 1
6403 9604 9605 1
6404 9604 9606 1
6405 9607 9608 1
6406 9607 9609 1
6407 9610 9611 1
6408 9610 9612 1
6409 9613 9614 1
6410 9613 9615 1
6411 9616 9617 1
6412 9616 9618 1
6413 9619 9620 1
6414 9619 9621 1
6415 9622 9623 1
6416 9622 9624 1
6417 9625 9626 1
6418 9625 9627 1
6419 9628 9629 1
6420 9628 9630 1
6421 9631 9632 1
6422 9631 9633 1
6423 9634 9635 1
6424 9634 9636 1
6425 9637 9638 1
6426 9637 9639 1
6427 9640 9641 1
6428 9640 9642 1
6429 9643 9644 1
6430 9643 9645 1
6431 9646 9647 1
6432 9646 9648 1
6433 9649 9650 1
6434 9649 9651 1
6435 9652 9653 1
6436 9652 9654 1
6437 9655 9656 1
6438 9655 9657 1
6439 9658 9659 1
6440 9658 9660 1
6441 9661 9662 1
6442 9661 9663 1
6443 9664 9665 1
6444 9664 9666 1
6445 9667 9668 1
6446 9667 9669 1
6447 9670 9671 1
6448 9670 9672 1
6449 9673 9674 1
6450 9673 9675 1
6451 9676 9677 1
6452 9676 9678 1
6453 9679 9680 1
6454 9679 9681 1
6455 9682 9683 1
6456 9682 9684 1
6457 9685 9686 1
6458 9685 9687 1
6459 9688 9689 1
6460 9688 9690 1
6461 9691 9692 1
6462 9691 9693 1
6463 9694 9695 1
6464 9694 9696 1
6465 9697 9698 1
6466 9697 9699 1
6467 9700 9701 1
6468 9700 9702 1
6469 9703 9704 1
6470 9703 9705 1
6471 9706 9707 1
6472 9706 9708 1
6473 9709 9710 1
6474 9709 9711 1
6475 9712 9713 1
6476 9712 9714 1
6477 9715 9716 1
6478 9715 9717 1
6479 9718 9719 1
6480 9718 9720 1
6481 9721 9722 1
6482 9721 9723 1
6483 9724 9725 1
6484 9724 9726 1
6485 9727 9728 1
6486 9727 9729 1
6487 9730 9731 1
6488 9730 9732 1
6489 9733 9734 1
6490 9733 9735 1
6491 9736 9737 1
6492 9736 9738 1
6493 9739 9740 1
6494 9739 9741 1
6495 9742 9743 1
6496 9742 9744 1
6497 9745 9746 1
6498 9745 9747 1
6499 9748 9749 1
6500 9748 9750 1
6501 9751 9752 1
6502 9751 9753 1
6503 9754 9755 1
6504 9754 9756 1
6505 9757 9758 1
6506 9757 9759 1
6507 9760 9761 1
6508 9760 9762 1
6509 9763 9764 1
6510 9763 9765 1
6511 9766 9767 1
6512 9766 9768 1
6513 9769 9770 1
6514 9769 9771 1
6515 9772 9773 1
6516 9772 9774 1
6517 9775 9776 1
6518 9775 9777 1
6519 9778 9779 1
6520 9778 9780 1
6521 9781 9782 1
6522 9781 9783 1
6523 9784 9785 1
6524 9784 9786 1
6525 9787 9788 1
6526 9787 9789 1
6527 9790 9791 1
6528 9790 9792 1
6529 9793 9794 1
6530 9793 9795 1
6531 9796 9797 1
6532 9796 9798 1
6533 9799 9800 1
6534 9799 9801 1
6535 9802 9803 1
6536 9802 9804 1
6537 9805 9806 1
6538 9805 9807 1
6539 9808 9809 1
6540 9808 9810 1
6541 9811 9812 1
6542 9811 9813 1
6543 9814 9815 1
6544 9814 9816 1
6545 9817 9818 1
6546 9817 9819 1
6547 9820 9821 1
6548 9820 9822 1
6549 9823 9824 1
6550 9823 9825 1
6551 9826 9827 1
6552 9826 9828 1
6553 9829 9830 1
6554 9829 9831 1
6555 9832 9833 1
6556 9832 9834 1
6557 9835 9836 1
6558 9835 9837 1
6559 9838 9839 1
6560 9838 9840 1
6561 9841 9842 1
6562 9841 9843 1
6563 9844 9845 1
6564 9844 9846 1
6565 9847 9848 1
6566 9847 9849 1
6567 9850 9851 1
6568 9850 9852 1
6569 9853 9854 1
6570 9853 9855 1
6571 9856 9857 1
6572 9856 9858 1
6573 9859 9860 1
6574 9859 9861 1
6575 9862 9863 1
6576 9862 9864 1
6577 9865 9866 1
6578 9865 9867 1
6579 9868 9869 1
6580 9868 9870 1
6581 9871 9872 1
6582 9871 9873 1
6583 9874 9875 1
6584 9874 9876 1
6585 9877 9878 1
6586 9877 9879 1
6587 9880 9881 1
6588 9880 9882 1
6589 9883 9884 1
6590 9883 9885 1
6591 9886 9887 1
6592 9886 9888 1
6593 9889 9890 1
6594 9889 9891 1
6595 9892 9893 1
6596 9892 9894 1
6597 9895 9896 1
6598 9895 9897 1
6599 9898 9899 1
6600 9898 9900 1
6601 9901 9902 1
6602 9901 9903 1
6603 9904 9905 1
6604 9904 9906 1
6605 9907 9908 1
6606 9907 9909 1
6607 9910 9911 1
6608 9910 9912 1
6609 9913 9914 1
6610 9913 9915 1
6611 9916 9917 1
6612 9916 9918 1
6613 9919 9920 1
6614 9919 9921 1
6615 9922 9923 1
6616 9922 9924 1
6617 9925 9926 1
6618 9925 9927 1
6619 9928 9929 1
6620 9928 9930 1
6621 9931 9932 1
6622 9931 9933 1
6623 9934 9935 1
6624 9934 9936 1
6625 9937 9938 1
6626 9937 9939 1
6627 9940 9941 1
6628 9940 9942 1
6629 9943 9944 1
6630 9943 9945 1
6631 9946 9947 1
6632 9946 9948 1
6633 9949 9950 1
6634 9949 9951 1
6635 9952 9953 1
6636 9952 9954 1
6637 9955 9956 1
6638 9955 9957 1
6639 9958 9959 1
6640 9958 9960 1
6641 9961 9962 1
6642 9961 9963 1
6643 9964 9965 1
6644 9964 9966 1
6645 9967 9968 1
6646 9967 9969 1
6647 9970 9971 1
6648 9970 9972 1
6649 9973 9974 1
6650 9973 9975 1
6651 9976 9977 1
6652 9976 9978 1
6653 9979 9980 1
6654 9979 9981 1
6655 9982 9983 1
6656 9982 9984 1
6657 9985 9986 1
6658 9985 9987 1
6659 9988 9989 1
6660 9988 9990 1
6661 9991 9992 1
6662 9991 9993 1
6663 9994 9995 1
6664 9994 9996 1
6665 9997 9998 1
6666 9997 9999 1
6667 10000 10001 1
6668 10000 10002 1
6669 10003 10004 1
6670 10003 10005 1
6671 10006 10007 1
6672 10006 10008 1
6673 10009 10010 1
6674 10009 10011 1
6675 10012 10013 1
6676 10012 10014 1
6677 10015 10016 1
6678 10015 10017 1
6679 10018 10019 1
6680 10018 10020 1
6681 10021 10022 1
6682 10021 10023 1
6683 10024 10025 1
6684 10024 10026 1
6685 10027 10028 1
6686 10027 10029 1
6687 10030 10031 1
6688 10030 10032 1
6689 10033 10034 1
6690 10033 10035 1
6691 10036 10037 1
6692 10036 10038 1
6693 10039 10040 1
6694 10039 10041 1
6695 10042 10043 1
6696 10042 10044 1
6697 10045 10046 1
6698 10045 10047 1
6699 10048 10049 1
6700 10048 10050 1
6701 10051 10052 1
6702 10051 10053 1
6703 10054 10055 1
6704 10054 10056 1
6705 10057 10058 1
6706 10057 10059 1
6707 10060 10061 1
6708 10060 10062 1
6709 10063 10064 1
6710 10063 10065 1
6711 10066 10067 1
6712 10066 10068 1
6713 10069 10070 1
6714 10069 10071 1
6715 10072 10073 1
6716 10072 10074 1
6717 10075 10076 1
6718 10075 10077 1
6719 10078 10079 1
6720 10078 10080 1
6721 10081 10082 1
6722 10081 10083 1
6723 10084 10085 1
6724 10084 10086 1
6725 10087 10088 1
6726 10087 10089 1
6727 10090 10091 1
6728 10090 10092 1
6729 10093 10094 1
6730 10093 10095 1
6731 10096 10097 1
6732 10096 10098 1
6733 10099 10100 1
6734 10099 10101 1
6735 10102 10103 1
6736 10102 10104 1
6737 10105 10106 1
6738 10105 10107 1
6739 10108 10109 1
6740 10108 10110 1
6741 10111 10112 1
6742 10111 10113 1
6743 10114 10115 1
6744 10114 10116 1
6745 10117 10118 1
6746 10117 10119 1
6747 10120 10121 1
6748 10120 10122 1
6749 10123 10124 1
6750 10123 10125 1
6751 10126 10127 1
6752 10126 10128 1
6753 10129 10130 1
6754 10129 10131 1
6755 10132 10133 1
6756 10132 10134 1
6757 10135 10136 1
6758 10135 10137 1
6759 10138 10139 1
6760 10138 10140 1
6761 10141 10142 1
6762 10141 10143 1
6763 10144 10145 1
6764 10144 10146 1
6765 10147 10148 1
6766 10147 10149 1
6767 10150 10151 1
6768 10150 10152 1
6769 10153 10154 1
6770 10153 10155 1
6771 10156 10157 1
6772 10156 10158 1
6773 10159 10160 1
6774 10159 10161 1
6775 10162 10163 1
6776 10162 10164 1
6777 10165 10166 1
6778 10165 10167 1
6779 10168 10169 1
6780 10168 10170 1
6781 10171 10172 1
6782 10171 10173 1
6783 10174 10175 1
6784 10174 10176 1
6785 10177 10178 1
6786 10177 10179 1
6787 10180 10181 1
6788 10180 10182 1
6789 10183 10184 1
6790 10183 10185 1
6791 10186 10187 1
6792 10186 10188 1
6793 10189 10190 1
6794 10189 10191 1
6795 10192 10193 1
6796 10192 10194 1
6797 10195 10196 1
6798 10195 10197 1
6799 10198 10199 1
6800 10198 10200 1
6801 10201 10202 1
6802 10201 10203 1
6803 10204 10205 1
6804 10204 10206 1
6805 10207 10208 1
6806 10207 10209 1
6807 10210 10211 1
6808 10210 10212 1
6809 10213 10214 1
6810 10213 10215 1
6811 10216 10217 1
6812 10216 10218 1
6813 10219 10220 1
6814 10219 10221 1
6815 10222 10223 1
6816 10222 10224 1
6817 10225 10226 1
6818 10225 10227 1
6819 10228 10229 1
6820 10228 10230 1
6821 10231 10232 1
6822 10231 10233 1
6823 10234 10235 1
6824 10234 10236 1
6825 10237 10238 1
6826 10237 10239 1
6827 10240 10241 1
6828 10240 10242 1
6829 10243 10244 1
6830 10243 10245 1
6831 10246 10247 1
6832 10246 10248 1
6833 10249 10250 1
6834 10249 10251 1
6835 10252 10253 1
6836 10252 10254 1
6837 10255 10256 1
6838 10255 10257 1
6839 10258 10259 1
6840 10258 10260 1
6841 10261 10262 1
6842 10261 10263 1
6843 10264 10265 1
6844 10264 10266 1
6845 10267 10268 1
6846 10267 10269 1
6847 10270 10271 1
6848 10270 10272 1
6849 10273 10274 1
6850 10273 10275 1
6851 10276 10277 1
6852 10276 10278 1
6853 10279 10280 1
6854 10279 10281 1
6855 10282 10283 1
6856 10282 10284 1
6857 10285 10286 1
6858 10285 10287 1
6859 10288 10289 1
6860 10288 10290 1
6861 10291 10292 1
6862 10291 10293 1
6863 10294 10295 1
6864 10294 10296 1
6865 10297 10298 1
6866 10297 10299 1
6867 10300 10301 1
6868 10300 10302 1
6869 10303 10304 1
6870 10303 10305 1
6871 10306 10307 1
6872 10306 10308 1
6873 10309 10310 1
6874 10309 10311 1
6875 10312 10313 1
6876 10312 10314 1
6877 10315 10316 1
6878 10315 10317 1
6879 10318 10319 1
6880 10318 10320 1
6881 10321 10322 1
6882 10321 10323 1
6883 10324 10325 1
6884 10324 10326 1
6885 10327 10328 1
6886 10327 10329 1
6887 10330 10331 1
6888 10330 10332 1
6889 10333 10334 1
6890 10333 10335 1
6891 10336 10337 1
6892 10336 10338 1
6893 10339 10340 1
6894 10339 10341 1
6895 10342 10343 1
6896 10342 10344 1
6897 10345 10346 1
6898 10345 10347 1
6899 10348 10349 1
6900 10348 10350 1
6901 10351 10352 1
6902 10351 10353 1
6903 10354 10355 1
6904 10354 10356 1
6905 10357 10358 1
6906 10357 10359 1
6907 10360 10361 1
6908 10360 10362 1
6909 10363 10364 1
6910 10363 10365 1
6911 10366 10367 1
6912 10366 10368 1
6913 10369 10370 1
6914 10369 10371 1
6915 10372 10373 1
6916 10372 10374 1
6917 10375 10376 1
6918 10375 10377 1
6919 10378 10379 1
6920 10378 10380 1
6921 10381 10382 1
6922 10381 10383 1
6923 10384 10385 1
6924 10384 10386 1
6925 10387 10388 1
6926 10387 10389 1
6927 10390 10391 1
6928 10390 10392 1
6929 10393 10394 1
6930 10393 10395 1
6931 10396 10397 1
6932 10396 10398 1
6933 10399 10400 1
6934 10399 10401 1
6935 10402 10403 1
6936 10402 10404 1
6937 10405 10406 1
6938 10405 10407 1
6939 10408 10409 1
6940 10408 10410 1
6941 10411 10412 1
6942 10411 10413 1
6943 10414 10415 1
6944 10414 10416 1
6945 10417 10418 1
6946 10417 10419 1
6947 10420 10421 1
6948 10420 10422 1
6949 10423 10424 1
6950 10423 10425 1
6951 10426 10427 1
6952 10426 10428 1
6953 10429 10430 1
6954 10429 10431 1
6955 10432 10433 1
6956 10432 10434 1
6957 10435 10436 1
6958 10435 10437 1
6959 10438 10439 1
6960 10438 10440 1
6961 10441 10442 1
6962 10441 10443 1
6963 10444 10445 1
6964 10444 10446 1
6965 10447 10448 1
6966 10447 10449 1
6967 10450 10451 1
6968 10450 10452 1
6969 10453 10454 1
6970 10453 10455 1
6971 10456 10457 1
6972 10456 10458 1
6973 10459 10460 1
6974 10459 10461 1
6975 10462 10463 1
6976 10462 10464 1
6977 10465 10466 1
6978 10465 10467 1
6979 10468 10469 1
6980 10468 10470 1
6981 10471 10472 1
6982 10471 10473 1
6983 10474 10475 1
6984 10474 10476 1
6985 10477 10478 1
6986 10477 10479 1
6987 10480 10481 1
6988 10480 10482 1
6989 10483 10484 1
6990 10483 10485 1
6991 10486 10487 1
6992 10486 10488 1
6993 10489 10490 1
6994 10489 10491 1
6995 10492 10493 1
6996 10492 10494 1
6997 10495 10496 1
6998 10495 10497 1
6999 10498 10499 1
7000 10498 10500 1
7001 10501 10502 1
7002 10501 10503 1
7003 10504 10505 1
7004 10504 10506 1
7005 10507 10508 1
7006 10507 10509 1
7007 10510 10511 1
7008 10510 10512 1
7009 10513 10514 1
7010 10513 10515 1
7011 10516 10517 1
7012 10516 10518 1
7013 10519 10520 1
7014 10519 10521 1
7015 10522 10523 1
7016 10522 10524 1
7017 10525 10526 1
7018 10525 10527 1
7019 10528 10529 1
7020 10528 10530 1
7021 10531 10532 1
7022 10531 10533 1
7023 10534 10535 1
7024 10534 10536 1
7025 10537 10538 1
7026 10537 10539 1
7027 10540 10541 1
7028 10540 10542 1
7029 10543 10544 1
7030 10543 10545 1
7031 10546 10547 1
7032 10546 10548 1
7033 10549 10550 1
7034 10549 10551 1
7035 10552 10553 1
7036 10552 10554 1
7037 10555 10556 1
7038 10555 10557 1
7039 10558 10559 1
7040 10558 10560 1
7041 10561 10562 1
7042 10561 10563 1
7043 10564 10565 1
7044 10564 10566 1
7045 10567 10568 1
7046 10567 10569 1
7047 10570 10571 1
7048 10570 10572 1
7049 10573 10574 1
7050 10573 10575 1
7051 10576 10577 1
7052 10576 10578 1
7053 10579 10580 1
7054 10579 10581 1
7055 10582 10583 1
7056 10582 10584 1
7057 10585 10586 1
7058 10585 10587 1
7059 10588 10589 1
7060 10588 10590 1
7061 10591 10592 1
7062 10591 10593 1
7063 10594 10595 1
7064 10594 10596 1
7065 10597 10598 1
7066 10597 10599 1
7067 10600 10601 1
7068 10600 10602 1
7069 10603 10604 1
7070 10603 10605 1
7071 10606 10607 1
7072 10606 10608 1
7073 10609 10610 1
7074 10609 10611 1
7075 10612 10613 1
7076 10612 10614 1
7077 10615 10616 1
7078 10615 10617 1
7079 10618 10619 1
7080 10618 10620 1
7081 10621 10622 1
7082 10621 10623 1
7083 10624 10625 1
7084 10624 10626 1
7085 10627 10628 1
7086 10627 10629 1
7087 10630 10631 1
7088 10630 10632 1
7089 10633 10634 1
7090 10633 10635 1
7091 10636 10637 1
7092 10636 10638 1
7093 10639 10640 1
7094 10639 10641 1
7095 10642 10643 1
7096 10642 10644 1
7097 10645 10646 1
7098 10645 10647 1
7099 10648 10649 1
7100 10648 10650 1
7101 10651 10652 1
7102 10651 10653 1
7103 10654 10655 1
7104 10654 10656 1
7105 10657 10658 1
7106 10657 10659 1
7107 10660 10661 1
7108 10660 10662 1
7109 10663 10664 1
7110 10663 10665 1
7111 10666 10667 1
7112 10666 10668 1
7113 10669 10670 1
7114 10669 10671 1
7115 10672 10673 1
7116 10672 10674 1
7117 10675 10676 1
7118 10675 10677 1
7119 10678 10679 1
7120 10678 10680 1
7121 10681 10682 1
7122 10681 10683 1
7123 10684 10685 1
7124 10684 10686 1
7125 10687 10688 1
7126 10687 10689 1
7127 10690 10691 1
7128 10690 10692 1
7129 10693 10694 1
7130 10693 10695 1
7131 10696 10697 1
7132 10696 10698 1
7133 10699 10700 1
7134 10699 10701 1
7135 10702 10703 1
7136 10702 10704 1
7137 10705 10706 1
7138 10705 10707 1
7139 10708 10709 1
7140 10708 10710 1
7141 10711 10712 1
7142 10711 10713 1
7143 10714 10715 1
7144 10714 10716 1
7145 10717 10718 1
7146 10717 10719 1
7147 10720 10721 1
7148 10720 10722 1
7149 10723 10724 1
7150 10723 10725 1
7151 10726 10727 1
7152 10726 10728 1
7153 10729 10730 1
7154 10729 10731 1
7155 10732 10733 1
7156 10732 10734 1
7157 10735 10736 1
7158 10735 10737 1
7159 10738 10739 1
7160 10738 10740 1
7161 10741 10742 1
7162 10741 10743 1
7163 10744 10745 1
7164 10744 10746 1
7165 10747 10748 1
7166 10747 10749 1
7167 10750 10751 1
7168 10750 10752 1
7169 10753 10754 1
7170 10753 10755 1
7171 10756 10757 1
7172 10756 10758 1
7173 10759 10760 1
7174 10759 10761 1
7175 10762 10763 1
7176 10762 10764 1
7177 10765 10766 1
7178 10765 10767 1
7179 10768 10769 1
7180 10768 10770 1
7181 10771 10772 1
7182 10771 10773 1
7183 10774 10775 1
7184 10774 10776 1
7185 10777 10778 1
7186 10777 10779 1
7187 10780 10781 1
7188 10780 10782 1
7189 10783 10784 1
7190 10783 10785 1
7191 10786 10787 1
7192 10786 10788 1
7193 10789 10790 1
7194 10789 10791 1
7195 10792 10793 1
7196 10792 10794 1
7197 10795 10796 1
7198 10795 10797 1
7199 10798 10799 1
7200 10798 10800 1
7201 10801 10802 1
7202 10801 10803 1
7203 10804 10805 1
7204 10804 10806 1
7205 10807 10808 1
7206 10807 10809 1
7207 10810 10811 1
7208 10810 10812 1
7209 10813 10814 1
7210 10813 10815 1
7211 10816 10817 1
7212 10816 10818 1
7213 10819 10820 1
7214 10819 10821 1
7215 10822 10823 1
7216 10822 10824 1
7217 10825 10826 1
7218 10825 10827 1
7219 10828 10829 1
7220 10828 10830 1
7221 10831 10832 1
7222 10831 10833 1
7223 10834 10835 1
7224 10834 10836 1
7225 10837 10838 1
7226 10837 10839 1
7227 10840 10841 1
7228 10840 10842 1
7229 10843 10844 1
7230 10843 10845 1
7231 10846 10847 1
7232 10846 10848 1
7233 10849 10850 1
7234 10849 10851 1
7235 10852 10853 1
7236 10852 10854 1
7237 10855 10856 1
7238 10855 10857 1
7239 10858 10859 1
7240 10858 10860 1
7241 10861 10862 1
7242 10861 10863 1
7243 10864 10865 1
7244 10864 10866 1
7245 10867 10868 1
7246 10867 10869 1
7247 10870 10871 1
7248 10870 10872 1
7249 10873 10874 1
7250 10873 10875 1
7251 10876 10877 1
7252 10876 10878 1
7253 10879 10880 1
7254 10879 10881 1
7255 10882 10883 1
7256 10882 10884 1
7257 10885 10886 1
7258 10885 10887 1
7259 10888 10889 1
7260 10888 10890 1
7261 10891 10892 1
7262 10891 10893 1
7263 10894 10895 1
7264 10894 10896 1
7265 10897 10898 1
7266 10897 10899 1
7267 10900 10901 1
7268 10900 10902 1
7269 10903 10904 1
7270 10903 10905 1
7271 10906 10907 1
7272 10906 10908 1
7273 10909 10910 1
7274 10909 10911 1
7275 10912 10913 1
7276 10912 10914 1
7277 10915 10916 1
7278 10915 10917 1
7279 10918 10919 1
7280 10918 10920 1
7281 10921 10922 1
7282 10921 10923 1
7283 10924 10925 1
7284 10924 10926 1
7285 10927 10928 1
7286 10927 10929 1
7287 10930 10931 1
7288 10930 10932 1
7289 10933 10934 1
7290 10933 10935 1
7291 10936 10937 1
7292 10936 10938 1
7293 10939 10940 1
7294 10939 10941 1
7295 10942 10943 1
7296 10942 10944 1
7297 10945 10946 1
7298 10945 10947 1
7299 10948 10949 1
7300 10948 10950 1
7301 10951 10952 1
7302 10951 10953 1
7303 10954 10955 1
7304 10954 10956 1
7305 10957 10958 1
7306 10957 10959 1
7307 10960 10961 1
7308 10960 10962 1
7309 10963 10964 1
7310 10963 10965 1
7311 10966 10967 1
7312 10966 10968 1
7313 10969 10970 1
7314 10969 10971 1
7315 10972 10973 1
7316 10972 10974 1
7317 10975 10976 1
7318 10975 10977 1
7319 10978 10979 1
7320 10978 10980 1
7321 10981 10982 1
7322 10981 10983 1
7323 10984 10985 1
7324 10984 10986 1
7325 10987 10988 1
7326 10987 10989 1
7327 10990 10991 1
7328 10990 10992 1
7329 10993 10994 1
7330 10993 10995 1
7331 10996 10997 1
7332 10996 10998 1
7333 10999 11000 1
7334 10999 11001 1
7335 11002 11003 1
7336 11002 11004 1
7337 11005 11006 1
7338 11005 11007 1
7339 11008 11009 1
7340 11008 11010 1
7341 11011 11012 1
7342 11011 11013 1
7343 11014 11015 1
7344 11014 11016 1
7345 11017 11018 1
7346 11017 11019 1
7347 11020 11021 1
7348 11020 11022 1
7349 11023 11024 1
7350 11023 11025 1
7351 11026 11027 1
7352 11026 11028 1
7353 11029 11030 1
7354 11029 11031 1
7355 11032 11033 1
7356 11032 11034 1
7357 11035 11036 1
7358 11035 11037 1
7359 11038 11039 1
7360 11038 11040 1
7361 11041 11042 1
7362 11041 11043 1
7363 11044 11045 1
7364 11044 11046 1
7365 11047 11048 1
7366 11047 11049 1
7367 11050 11051 1
7368 11050 11052 1
7369 11053 11054 1
7370 11053 11055 1
7371 11056 11057 1
7372 11056 11058 1
7373 11059 11060 1
7374 11059 11061 1
7375 11062 11063 1
7376 11062 11064 1
7377 11065 11066 1
7378 11065 11067 1
7379 11068 11069 1
7380 11068 11070 1
7381 11071 11072 1
7382 11071 11073 1
7383 11074 11075 1
7384 11074 11076 1
7385 11077 11078 1
7386 11077 11079 1
7387 11080 11081 1
7388 11080 11082 1
7389 11083 11084 1
7390 11083 11085 1
7391 11086 11087 1
7392 11086 11088 1
7393 11089 11090 1
7394 11089 11091 1
7395 11092 11093 1
7396 11092 11094 1
7397 11095 11096 1
7398 11095 11097 1
7399 11098 11099 1
7400 11098 11100 1
7401 11101 11102 1
7402 11101 11103 1
7403 11104 11105 1
7404 11104 11106 1
7405 11107 11108 1
7406 11107 11109 1
7407 11110 11111 1
7408 11110 11112 1
7409 11113 11114 1
7410 11113 11115 1
7411 11116 11117 1
7412 11116 11118 1
7413 11119 11120 1
7414 11119 11121 1
7415 11122 11123 1
7416 11122 11124 1
7417 11125 11126 1
7418 11125 11127 1
7419 11128 11129 1
7420 11128 11130 1
7421 11131 11132 1
7422 11131 11133 1
7423 11134 11135 1
7424 11134 11136 1
7425 11137 11138 1
7426 11137 11139 1
7427 11140 11141 1
7428 11140 11142 1
7429 11143 11144 1
7430 11143 11145 1
7431 11146 11147 1
7432 11146 11148 1
7433 11149 11150 1
7434 11149 11151 1
7435 11152 11153 1
7436 11152 11154 1
7437 11155 11156 1
7438 11155 11157 1
7439 11158 11159 1
7440 11158 11160 1
7441 11161 11162 1
7442 11161 11163 1
7443 11164 11165 1
7444 11164 11166 1
7445 11167 11168 1
7446 11167 11169 1
7447 11170 11171 1
7448 11170 11172 1
7449 11173 11174 1
7450 11173 11175 1
7451 11176 11177 1
7452 11176 11178 1
7453 11179 11180 1
7454 11179 11181 1
7455 11182 11183 1
7456 11182 11184 1
7457 11185 11186 1
7458 11185 11187 1
7459 11188 11189 1
7460 11188 11190 1
7461 11191 11192 1
7462 11191 11193 1
7463 11194 11195 1
7464 11194 11196 1
7465 11197 11198 1
7466 11197 11199 1
7467 11200 11201 1
7468 11200 11202 1
7469 11203 11204 1
7470 11203 11205 1
7471 11206 11207 1
7472 11206 11208 1
7473 11209 11210 1
7474 11209 11211 1
7475 11212 11213 1
7476 11212 11214 1
7477 11215 11216 1
7478 11215 11217 1
7479 11218 11219 1
7480 11218 11220 1
7481 11221 11222 1
7482 11221 11223 1
7483 11224 11225 1
7484 11224 11226 1
7485 11227 11228 1
7486 11227 11229 1
7487 11230 11231 1
7488 11230 11232 1
7489 11233 11234 1
7490 11233 11235 1
7491 11236 11237 1
7492 11236 11238 1
7493 11239 11240 1
7494 11239 11241 1
7495 11242 11243 1
7496 11242 11244 1
7497 11245 11246 1
7498 11245 11247 1
7499 11248 11249 1
7500 11248 11250 1
7501 11251 11252 1
7502 11251 11253 1
7503 11254 11255 1
7504 11254 11256 1
7505 11257 11258 1
7506 11257 11259 1
7507 11260 11261 1
7508 11260 11262 1
7509 11263 11264 1
7510 11263 11265 1
7511 11266 11267 1
7512 11266 11268 1
7513 11269 11270 1
7514 11269 11271 1
7515 11272 11273 1
7516 11272 11274 1
7517 11275 11276 1
7518 11275 11277 1
7519 11278 11279 1
7520 11278 11280 1
7521 11281 11282 1
7522 11281 11283 1
7523 11284 11285 1
7524 11284 11286 1
7525 11287 11288 1
7526 11287 11289 1
7527 11290 11291 1
7528 11290 11292 1
7529 11293 11294 1
7530 11293 11295 1
7531 11296 11297 1
7532 11296 11298 1
7533 11299 11300 1
7534 11299 11301 1
7535 11302 11303 1
7536 11302 11304 1
7537 11305 11306 1
7538 11305 11307 1
7539 11308 11309 1
7540 11308 11310 1
7541 11311 11312 1
7542 11311 11313 1
7543 11314 11315 1
7544 11314 11316 1
7545 11317 11318 1
7546 11317 11319 1
7547 11320 11321 1
7548 11320 11322 1
7549 11323 11324 1
7550 11323 11325 1
7551 11326 11327 1
7552 11326 11328 1
7553 11329 11330 1
7554 11329 11331 1
7555 11332 11333 1
7556 11332 11334 1
7557 11335 11336 1
7558 11335 11337 1
7559 11338 11339 1
7560 11338 11340 1
7561 11341 11342 1
7562 11341 11343 1
7563 11344 11345 1
7564 11344 11346 1
7565 11347 11348 1
7566 11347 11349 1
7567 11350 11351 1
7568 11350 11352 1
7569 11353 11354 1
7570 11353 11355 1
7571 11356 11357 1
7572 11356 11358 1
7573 11359 11360 1
7574 11359 11361 1
7575 11362 11363 1
7576 11362 11364 1
7577 11365 11366 1
7578 11365 11367 1
7579 11368 11369 1
7580 11368 11370 1
7581 11371 11372 1
7582 11371 11373 1
7583 11374 11375 1
7584 11374 11376 1
7585 11377 11378 1
7586 11377 11379 1
7587 11380 11381 1
7588 11380 11382 1
7589 11383 11384 1
7590 11383 11385 1
7591 11386 11387 1
7592 11386 11388 1
7593 11389 11390 1
7594 11389 11391 1
7595 11392 11393 1
7596 11392 11394 1
7597 11395 11396 1
7598 11395 11397 1
7599 11398 11399 1
7600 11398 11400 1
7601 11401 11402 1
7602 11401 11403 1
7603 11404 11405 1
7604 11404 11406 1
7605 11407 11408 1
7606 11407 11409 1
7607 11410 11411 1
7608 11410 11412 1
7609 11413 11414 1
7610 11413 11415 1
7611 11416 11417 1
7612 11416 11418 1
7613 11419 11420 1
7614 11419 11421 1
7615 11422 11423 1
7616 11422 11424 1
7617 11425 11426 1
7618 11425 11427 1
7619 11428 11429 1
7620 11428 11430 1
7621 11431 11432 1
7622 11431 11433 1
7623 11434 11435 1
7624 11434 11436 1
7625 11437 11438 1
7626 11437 11439 1
7627 11440 11441 1
7628 11440 11442 1
7629 11443 11444 1
7630 11443 11445 1
7631 11446 11447 1
7632 11446 11448 1
7633 11449 11450 1
7634 11449 11451 1
7635 11452 11453 1
7636 11452 11454 1
7637 11455 11456 1
7638 11455 11457 1
7639 11458 11459 1
7640 11458 11460 1
7641 11461 11462 1
7642 11461 11463 1
7643 11464 11465 1
7644 11464 11466 1
7645 11467 11468 1
7646 11467 11469 1
7647 11470 11471 1
7648 11470 11472 1
7649 11473 11474 1
7650 11473 11475 1
7651 11476 11477 1
7652 11476 11478 1
7653 11479 11480 1
7654 11479 11481 1
7655 11482 11483 1
7656 11482 11484 1
7657 11485 11486 1
7658 11485 11487 1
7659 11488 11489 1
7660 11488 11490 1
7661 11491 11492 1
7662 11491 11493 1
7663 11494 11495 1
7664 11494 11496 1
7665 11497 11498 1
7666 11497 11499 1
7667 11500 11501 1
7668 11500 11502 1
7669 11503 11504 1
7670 11503 11505 1
7671 11506 11507 1
7672 11506 11508 1
7673 11509 11510 1
7674 11509 11511 1
7675 11512 11513 1
7676 11512 11514 1
7677 11515 11516 1
7678 11515 11517 1
7679 11518 11519 1
7680 11518 11520 1
7681 11521 11522 1
7682 11521 11523 1
7683 11524 11525 1
7684 11524 11526 1
7685 11527 11528 1
7686 11527 11529 1
7687 11530 11531 1
7688 11530 11532 1
7689 11533 11534 1
7690 11533 11535 1
7691 11536 11537 1
7692 11536 11538 1
7693 11539 11540 1
7694 11539 11541 1
7695 11542 11543 1
7696 11542 11544 1
7697 11545 11546 1
7698 11545 11547 1
7699 11548 11549 1
7700 11548 11550 1
7701 11551 11552 1
7702 11551 11553 1
7703 11554 11555 1
7704 11554 11556 1
7705 11557 11558 1
7706 11557 11559 1
7707 11560 11561 1
7708 11560 11562 1
7709 11563 11564 1
7710 11563 11565 1
7711 11566 11567 1
7712 11566 11568 1
7713 11569 11570 1
7714 11569 11571 1
7715 11572 11573 1
7716 11572 11574 1
7717 11575 11576 1
7718 11575 11577 1
7719 11578 11579 1
7720 11578 11580 1
7721 11581 11582 1
7722 11581 11583 1
7723 11584 11585 1
7724 11584 11586 1
7725 11587 11588 1
7726 11587 11589 1
7727 11590 11591 1
7728 11590 11592 1
7729 11593 11594 1
7730 11593 11595 1
7731 11596 11597 1
7732 11596 11598 1
7733 11599 11600 1
7734 11599 11601 1
7735 11602 11603 1
7736 11602 11604 1
7737 11605 11606 1
7738 11605 11607 1
7739 11608 11609 1
7740 11608 11610 1
7741 11611 11612 1
7742 11611 11613 1
7743 11614 11615 1
7744 11614 11616 1
7745 11617 11618 1
7746 11617 11619 1
7747 11620 11621 1
7748 11620 11622 1
7749 11623 11624 1
7750 11623 11625 1
7751 11626 11627 1
7752 11626 11628 1
7753 11629 11630 1
7754 11629 11631 1
7755 11632 11633 1
7756 11632 11634 1
7757 11635 11636 1
7758 11635 11637 1
7759 11638 11639 1
7760 11638 11640 1
7761 11641 11642 1
7762 11641 11643 1
7763 11644 11645 1
7764 11644 11646 1
7765 11647 11648 1
7766 11647 11649 1
7767 11650 11651 1
7768 11650 11652 1
7769 11653 11654 1
7770 11653 11655 1
7771 11656 11657 1
7772 11656 11658 1
7773 11659 11660 1
7774 11659 11661 1
7775 11662 11663 1
7776 11662 11664 1
7777 11665 11666 1
7778 11665 11667 1
7779 11668 11669 1
7780 11668 11670 1
7781 11671 11672 1
7782 11671 11673 1
7783 11674 11675 1
7784 11674 11676 1
7785 11677 11678 1
7786 11677 11679 1
7787 11680 11681 1
7788 11680 11682 1
7789 11683 11684 1
7790 11683 11685 1
7791 11686 11687 1
7792 11686 11688 1
7793 11689 11690 1
7794 11689 11691 1
7795 11692 11693 1
7796 11692 11694 1
7797 11695 11696 1
7798 11695 11697 1
7799 11698 11699 1
7800 11698 11700 1
7801 11701 11702 1
7802 11701 11703 1
7803 11704 11705 1
7804 11704 11706 1
7805 11707 11708 1
7806 11707 11709 1
7807 11710 11711 1
7808 11710 11712 1
7809 11713 11714 1
7810 11713 11715 1
7811 11716 11717 1
7812 11716 11718 1
7813 11719 11720 1
7814 11719 11721 1
7815 11722 11723 1
7816 11722 11724 1
7817 11725 11726 1
7818 11725 11727 1
7819 11728 11729 1
7820 11728 11730 1
7821 11731 11732 1
7822 11731 11733 1
7823 11734 11735 1
7824 11734 11736 1
7825 11737 11738 1
7826 11737 11739 1
7827 11740 11741 1
7828 11740 11742 1
7829 11743 11744 1
7830 11743 11745 1
7831 11746 11747 1
7832 11746 11748 1
7833 11749 11750 1
7834 11749 11751 1
7835 11752 11753 1
7836 11752 11754 1
7837 11755 11756 1
7838 11755 11757 1
7839 11758 11759 1
7840 11758 11760 1
7841 11761 11762 1
7842 11761 11763 1
7843 11764 11765 1
7844 11764 11766 1
7845 11767 11768 1
7846 11767 11769 1
7847 11770 11771 1
7848 11770 11772 1
7849 11773 11774 1
7850 11773 11775 1
7851 11776 11777 1
7852 11776 11778 1
7853 11779 11780 1
7854 11779 11781 1
7855 11782 11783 1
7856 11782 11784 1
7857 11785 11786 1
7858 11785 11787 1
7859 11788 11789 1
7860 11788 11790 1
7861 11791 11792 1
7862 11791 11793 1
7863 11794 11795 1
7864 11794 11796 1
7865 11797 11798 1
7866 11797 11799 1
7867 11800 11801 1
7868 11800 11802 1
7869 11803 11804 1
7870 11803 11805 1
7871 11806 11807 1
7872 11806 11808 1
7873 11809 11810 1
7874 11809 11811 1
7875 11812 11813 1
7876 11812 11814 1
7877 11815 11816 1
7878 11815 11817 1
7879 11818 11819 1
7880 11818 11820 1
7881 11821 11822 1
7882 11821 11823 1
7883 11824 11825 1
7884 11824 11826 1
7885 11827 11828 1
7886 11827 11829 1
7887 11830 11831 1
7888 11830 11832 1
7889 11833 11834 1
7890 11833 11835 1
7891 11836 11837 1
7892 11836 11838 1
7893 11839 11840 1
7894 11839 11841 1
7895 11842 11843 1
7896 11842 11844 1
7897 11845 11846 1
7898 11845 11847 1
7899 11848 11849 1
7900 11848 11850 1
7901 11851 11852 1
7902 11851 11853 1
7903 11854 11855 1
7904 11854 11856 1
7905 11857 11858 1
7906 11857 11859 1
7907 11860 11861 1
7908 11860 11862 1
7909 11863 11864 1
7910 11863 11865 1
7911 11866 11867 1
7912 11866 11868 1
7913 11869 11870 1
7914 11869 11871 1
7915 11872 11873 1
7916 11872 11874 1
7917 11875 11876 1
7918 11875 11877 1
7919 11878 11879 1
7920 11878 11880 1
7921 11881 11882 1
7922 11881 11883 1
7923 11884 11885 1
7924 11884 11886 1
7925 11887 11888 1
7926 11887 11889 1
7927 11890 11891 1
7928 11890 11892 1
7929 11893 11894 1
7930 11893 11895 1
7931 11896 11897 1
7932 11896 11898 1
7933 11899 11900 1
7934 11899 11901 1
7935 11902 11903 1
7936 11902 11904 1
7937 11905 11906 1
7938 11905 11907 1
7939 11908 11909 1
7940 11908 11910 1
7941 11911 11912 1
7942 11911 11913 1
7943 11914 11915 1
7944 11914 11916 1
7945 11917 11918 1
7946 11917 11919 1
7947 11920 11921 1
7948 11920 11922 1
7949 11923 11924 1
7950 11923 11925 1
7951 11926 11927 1
7952 11926 11928 1
7953 11929 11930 1
7954 11929 11931 1
7955 11932 11933 1
7956 11932 11934 1
7957 11935 11936 1
7958 11935 11937 1
7959 11938 11939 1
7960 11938 11940 1
7961 11941 11942 1
7962 11941 11943 1
7963 11944 11945 1
7964 11944 11946 1
7965 11947 11948 1
7966 11947 11949 1
7967 11950 11951 1
7968 11950 11952 1
7969 11953 11954 1
7970 11953 11955 1
7971 11956 11957 1
7972 11956 11958 1
7973 11959 11960 1
7974 11959 11961 1
7975 11962 11963 1
7976 11962 11964 1
7977 11965 11966 1
7978 11965 11967 1
7979 11968 11969 1
7980 11968 11970 1
7981 11971 11972 1
7982 11971 11973 1
7983 11974 11975 1
7984 11974 11976 1
7985 11977 11978 1
7986 11977 11979 1
7987 11980 11981 1
7988 11980 11982 1
7989 11983 11984 1
7990 11983 11985 1
7991 11986 11987 1
7992 11986 11988 1
7993 11989 11990 1
7994 11989 11991 1
7995 11992 11993 1
7996 11992 11994 1
7997 11995 11996 1
7998 11995 11997 1
7999 11998 11999 1
8000 11998 12000 1
8001 12001 12002 1
8002 12001 12003 1
8003 12004 12005 1
8004 12004 12006 1
8005 12007 12008 1
8006 12007 12009 1
8007 12010 12011 1
8008 12010 12012 1
8009 12013 12014 1
8010 12013 12015 1
8011 12016 12017 1
8012 12016 12018 1
8013 12019 12020 1
8014 12019 12021 1
8015 12022 12023 1
8016 12022 12024 1
8017 12025 12026 1
8018 12025 12027 1
8019 12028 12029 1
8020 12028 12030 1
8021 12031 12032 1
8022 12031 12033 1
8023 12034 12035 1
8024 12034 12036 1
8025 12037 12038 1
8026 12037 12039 1
8027 12040 12041 1
8028 12040 12042 1
8029 12043 12044 1
8030 12043 12045 1
8031 12046 12047 1
8032 12046 12048 1
8033 12049 12050 1
8034 12049 12051 1
8035 12052 12053 1
8036 12052 12054 1
8037 12055 12056 1
8038 12055 12057 1
8039 12058 12059 1
8040 12058 12060 1
8041 12061 12062 1
8042 12061 12063 1
8043 12064 12065 1
8044 12064 12066 1
8045 12067 12068 1
8046 12067 12069 1
8047 12070 12071 1
8048 12070 12072 1
8049 12073 12074 1
8050 12073 12075 1
8051 12076 12077 1
8052 12076 12078 1
8053 12079 12080 1
8054 12079 12081 1
8055 12082 12083 1
8056 12082 12084 1
8057 12085 12086 1
8058 12085 12087 1
8059 12088 12089 1
8060 12088 12090 1
8061 12091 12092 1
8062 12091 12093 1
8063 12094 12095 1
8064 12094 12096 1
8065 12097 12098 1
8066 12097 12099 1
8067 12100 12101 1
8068 12100 12102 1
8069 12103 12104 1
8070 12103 12105 1
8071 12106 12107 1
8072 12106 12108 1
8073 12109 12110 1
8074 12109 12111 1
8075 12112 12113 1
8076 12112 12114 1
8077 12115 12116 1
8078 12115 12117 1
8079 12118 12119 1
8080 12118 12120 1
8081 12121 12122 1
8082 12121 12123 1
8083 12124 12125 1
8084 12124 12126 1
8085 12127 12128 1
8086 12127 12129 1
8087 12130 12131 1
8088 12130 12132 1
8089 12133 12134 1
8090 12133 12135 1
8091 12136 12137 1
8092 12136 12138 1
8093 12139 12140 1
8094 12139 12141 1
8095 12142 12143 1
8096 12142 12144 1
8097 12145 12146 1
8098 12145 12147 1
8099 12148 12149 1
8100 12148 12150 1
8101 12151 12152 1
8102 12151 12153 1
8103 12154 12155 1
8104 12154 12156 1
8105 12157 12158 1
8106 12157 12159 1
8107 12160 12161 1
8108 12160 12162 1
8109 12163 12164 1
8110 12163 12165 1
8111 12166 12167 1
8112 12166 12168 1
8113 12169 12170 1
8114 12169 12171 1
8115 12172 12173 1
8116 12172 12174 1
8117 12175 12176 1
8118 12175 12177 1
8119 12178 12179 1
8120 12178 12180 1
8121 12181 12182 1
8122 12181 12183 1
8123 12184 12185 1
8124 12184 12186 1
8125 12187 12188 1
8126 12187 12189 1
8127 12190 12191 1
8128 12190 12192 1
8129 12193 12194 1
8130 12193 12195 1
8131 12196 12197 1
8132 12196 12198 1
8133 12199 12200 1
8134 12199 12201 1
8135 12202 12203 1
8136 12202 12204 1
8137 12205 12206 1
8138 12205 12207 1
8139 12208 12209 1
8140 12208 12210 1
8141 12211 12212 1
8142 12211 12213 1
8143 12214 12215 1
8144 12214 12216 1
8145 12217 12218 1
8146 12217 12219 1
8147 12220 12221 1
8148 12220 12222 1
8149 12223 12224 1
8150 12223 12225 1
8151 12226 12227 1
8152 12226 12228 1
8153 12229 12230 1
8154 12229 12231 1
8155 12232 12233 1
8156 12232 12234 1
8157 12235 12236 1
8158 12235 12237 1
8159 12238 12239 1
8160 12238 12240 1
8161 12241 12242 1
8162 12241 12243 1
8163 12244 12245 1
8164 12244 12246 1
8165 12247 12248 1
8166 12247 12249 1
8167 12250 12251 1
8168 12250 12252 1
8169 12253 12254 1
8170 12253 12255 1
8171 12256 12257 1
8172 12256 12258 1
8173 12259 12260 1
8174 12259 12261 1
8175 12262 12263 1
8176 12262 12264 1
8177 12265 12266 1
8178 12265 12267 1
8179 12268 12269 1
8180 12268 12270 1
8181 12271 12272 1
8182 12271 12273 1
8183 12274 12275 1
8184 12274 12276 1
8185 12277 12278 1
8186 12277 12279 1
8187 12280 12281 1
8188 12280 12282 1
8189 12283 12284 1
8190 12283 12285 1
8191 12286 12287 1
8192 12286 12288 1
8193 12289 12290 1
8194 12289 12291 1
8195 12292 12293 1
8196 12292 12294 1
8197 12295 12296 1
8198 12295 12297 1
8199 12298 12299 1
8200 12298 12300 1
8201 12301 12302 1
8202 12301 12303 1
8203 12304 12305 1
8204 12304 12306 1
8205 12307 12308 1
8206 12307 12309 1
8207 12310 12311 1
8208 12310 12312 1
8209 12313 12314 1
8210 12313 12315 1
8211 12316 12317 1
8212 12316 12318 1
8213 12319 12320 1
8214 12319 12321 1
8215 12322 12323 1
8216 12322 12324 1
8217 12325 12326 1
8218 12325 12327 1
8219 12328 12329 1
8220 12328 12330 1
8221 12331 12332 1
8222 12331 12333 1
8223 12334 12335 1
8224 12334 12336 1
8225 12337 12338 1
8226 12337 12339 1
8227 12340 12341 1
8228 12340 12342 1
8229 12343 12344 1
8230 12343 12345 1
8231 12346 12347 1
8232 12346 12348 1
8233 12349 12350 1
8234 12349 12351 1
8235 12352 12353 1
8236 12352 12354 1
8237 12355 12356 1
8238 12355 12357 1
8239 12358 12359 1
8240 12358 12360 1
8241 12361 12362 1
8242 12361 12363 1
8243 12364 12365 1
8244 12364 12366 1
8245 12367 12368 1
8246 12367 12369 1
8247 12370 12371 1
8248 12370 12372 1
8249 12373 12374 1
8250 12373 12375 1
8251 12376 12377 1
8252 12376 12378 1
8253 12379 12380 1
8254 12379 12381 1
8255 12382 12383 1
8256 12382 12384 1
8257 12385 12386 1
8258 12385 12387 1
8259 12388 12389 1
8260 12388 12390 1
8261 12391 12392 1
8262 12391 12393 1
8263 12394 12395 1
8264 12394 12396 1
8265 12397 12398 1
8266 12397 12399 1
8267 12400 12401 1
8268 12400 12402 1
8269 12403 12404 1
8270 12403 12405 1
8271 12406 12407 1
8272 12406 12408 1
8273 12409 12410 1
8274 12409 12411 1
8275 12412 12413 1
8276 12412 12414 1
8277 12415 12416 1
8278 12415 12417 1
8279 12418 12419 1
8280 12418 12420 1
8281 12421 12422 1
8282 12421 12423 1
8283 12424 12425 1
8284 12424 12426 1
8285 12427 12428 1
8286 12427 12429 1
8287 12430 12431 1
8288 12430 12432 1
8289 12433 12434 1
8290 12433 12435 1
8291 12436 12437 1
8292 12436 12438 1
8293 12439 12440 1
8294 12439 12441 1
8295 12442 12443 1
8296 12442 12444 1
8297 12445 12446 1
8298 12445 12447 1
8299 12448 12449 1
8300 12448 12450 1
8301 12451 12452 1
8302 12451 12453 1
8303 12454 12455 1
8304 12454 12456 1
8305 12457 12458 1
8306 12457 12459 1
8307 12460 12461 1
8308 12460 12462 1
8309 12463 12464 1
8310 12463 12465 1
8311 12466 12467 1
8312 12466 12468 1
8313 12469 12470 1
8314 12469 12471 1
8315 12472 12473 1
8316 12472 12474 1
8317 12475 12476 1
8318 12475 12477 1
8319 12478 12479 1
8320 12478 12480 1
8321 12481 12482 1
8322 12481 12483 1
8323 12484 12485 1
8324 12484 12486 1
8325 12487 12488 1
8326 12487 12489 1
8327 12490 12491 1
8328 12490 12492 1
8329 12493 12494 1
8330 12493 12495 1
8331 12496 12497 1
8332 12496 12498 1
8333 12499 12500 1
8334 12499 12501 1
8335 12502 12503 1
8336 12502 12504 1
8337 12505 12506 1
8338 12505 12507 1
8339 12508 12509 1
8340 12508 12510 1
8341 12511 12512 1
8342 12511 12513 1
8343 12514 12515 1
8344 12514 12516 1
8345 12517 12518 1
8346 12517 12519 1
8347 12520 12521 1
8348 12520 12522 1
8349 12523 12524 1
8350 12523 12525 1
8351 12526 12527 1
8352 12526 12528 1
8353 12529 12530 1
8354 12529 12531 1
8355 12532 12533 1
8356 12532 12534 1
@<TRIPOS>CRYSIN
50.0 50.0 50.0 90 90 90 1 1
