# Mol2 file generated by Materials Studio
@<TRIPOS>MOLECULE
"Sketch 1"
90 75 0 0 0 
SMALL
USER_CHARGES


@<TRIPOS>ATOM
1 C1 5.10042 1.22959 9.83474 C.2 0 **** 0
2 C2 4.14416 1.44708 8.83814 C.2 0 **** 0
3 C3 4.20486 2.6022 8.0511 C.2 0 **** 0
4 C4 5.22429 3.53716 8.2592 C.2 0 **** 0
5 C5 6.18112 3.31814 9.25564 C.2 0 **** 0
6 C6 6.11604 2.16632 10.045 C.2 0 **** 0
7 H7 5.05251 0.339577 10.448 H 0 **** 0
8 H8 3.35633 0.723158 8.67847 H 0 **** 0
9 H9 3.46469 2.7718 7.28037 H 0 **** 0
10 H10 5.27223 4.43079 7.65031 H 0 **** 0
11 H11 6.96896 4.04097 9.41864 H 0 **** 0
12 H12 6.8506 1.99804 10.8191 H 0 **** 0
13 C13 9.32396 5.84376 10.6901 C.2 0 **** 0
14 C14 8.67452 5.31322 11.8102 C.2 0 **** 0
15 C15 8.74839 3.94177 12.0784 C.2 0 **** 0
16 C16 9.47511 3.10197 11.2278 C.2 0 **** 0
17 C17 10.1202 3.63205 10.1056 C.2 0 **** 0
18 C18 10.0462 5.00286 9.8376 C.2 0 **** 0
19 H19 9.26773 6.90513 10.4833 H 0 **** 0
20 H20 8.11768 5.96465 12.4708 H 0 **** 0
21 H21 8.24368 3.53086 12.9436 H 0 **** 0
22 H22 9.53306 2.04218 11.4357 H 0 **** 0
23 H23 10.6813 2.98418 9.44669 H 0 **** 0
24 H24 10.5492 5.4129 8.97108 H 0 **** 0
25 C25 14.4799 3.73518 9.12107 C.2 0 **** 0
26 C26 15.2441 2.69672 8.57735 C.2 0 **** 0
27 C27 15.1618 1.40989 9.11934 C.2 0 **** 0
28 C28 14.312 1.16023 10.2023 C.2 0 **** 0
29 C29 13.5446 2.19737 10.7427 C.2 0 **** 0
30 C30 13.6321 3.4855 10.2047 C.2 0 **** 0
31 H31 14.5454 4.73209 8.70367 H 0 **** 0
32 H32 15.8997 2.88942 7.7384 H 0 **** 0
33 H33 15.7543 0.606775 8.7002 H 0 **** 0
34 H34 14.2457 0.164009 10.6199 H 0 **** 0
35 H35 12.8824 2.00257 11.576 H 0 **** 0
36 H36 13.0414 4.28842 10.6249 H 0 **** 0
37 C37 10.9295 15.0881 9.05511 C.2 0 **** 0
38 C38 9.7617 15.3361 8.32633 C.2 0 **** 0
39 C39 8.5178 14.9808 8.8565 C.2 0 **** 0
40 C40 8.4408 14.38 10.1179 C.2 0 **** 0
41 C41 9.6087 14.1324 10.8475 C.2 0 **** 0
42 C42 10.8535 14.4869 10.3159 C.2 0 **** 0
43 H43 11.8907 15.3662 8.6447 H 0 **** 0
44 H44 9.82104 15.8036 7.35232 H 0 **** 0
45 H45 7.61484 15.1727 8.29117 H 0 **** 0
46 H46 7.47781 14.1076 10.5298 H 0 **** 0
47 H47 9.54923 13.6695 11.8244 H 0 **** 0
48 H48 11.7566 14.2972 10.8808 H 0 **** 0
49 C49 2.81855 4.17051 10.9964 C.2 0 **** 0
50 C50 3.86825 5.05704 11.2547 C.2 0 **** 0
51 C51 4.82656 4.74264 12.2233 C.2 0 **** 0
52 C52 4.73366 3.54205 12.9354 C.2 0 **** 0
53 C53 3.67965 2.65784 12.6812 C.2 0 **** 0
54 C54 2.72205 2.97219 11.7112 C.2 0 **** 0
55 H55 2.08121 4.41365 10.2447 H 0 **** 0
56 H56 3.94061 5.98504 10.703 H 0 **** 0
57 H57 5.63977 5.42789 12.4206 H 0 **** 0
58 H58 5.47782 3.29648 13.6816 H 0 **** 0
59 H59 3.60812 1.72829 13.2307 H 0 **** 0
60 H60 1.90985 2.28682 11.5108 H 0 **** 0
61 O61 13.6881 12.7216 8.42568 O.2 0 **** 0
62 O62 13.8816 13.5696 7.67006 O.2 0 **** 0
63 O63 12.0051 3.8308 6.88787 O.2 0 **** 0
64 O64 12.0301 2.6818 6.81365 O.2 0 **** 0
65 O65 5.22098 12.9339 8.78122 O.2 0 **** 0
66 O66 6.09656 12.5114 8.1636 O.2 0 **** 0
67 O67 11.9978 4.13012 13.373 O.2 0 **** 0
68 O68 11.826 5.26415 13.2738 O.2 0 **** 0
69 O69 8.35362 12.664 5.093 O.2 0 **** 0
70 O70 8.59722 13.7847 5.19541 O.2 0 **** 0
71 O71 2.17459 14.3529 11.1725 O.2 0 **** 0
72 O72 2.97982 14.079 11.9481 O.2 0 **** 0
73 O73 6.59086 9.88951 11.4645 O.2 0 **** 0
74 O74 7.63418 10.0721 11.9155 O.2 0 **** 0
75 O75 2.2709 5.55823 7.54435 O.2 0 **** 0
76 O76 2.97751 6.35489 7.98109 O.2 0 **** 0
77 O77 11.3288 9.51986 6.05341 O.2 0 **** 0
78 O78 11.5621 10.5015 5.49911 O.2 0 **** 0
79 O79 0.243102 2.15065 2.19776 O.2 0 **** 0
80 O80 -0.00973626 3.23332 2.49891 O.2 0 **** 0
81 O81 10.5765 11.4919 8.59365 O.2 0 **** 0
82 O82 9.45045 11.5745 8.36908 O.2 0 **** 0
83 O83 6.38455 6.81419 9.31702 O.2 0 **** 0
84 O84 6.06622 7.88741 9.58502 O.2 0 **** 0
85 O85 11.1561 10.5531 12.9915 O.2 0 **** 0
86 O86 11.1122 10.3037 11.8687 O.2 0 **** 0
87 O87 0.236982 5.06884 12.9815 O.2 0 **** 0
88 O88 0.13964 5.88287 12.1734 O.2 0 **** 0
89 O89 12.9295 7.08354 9.68102 O.2 0 **** 0
90 O90 12.5291 7.33313 10.7308 O.2 0 **** 0
@<TRIPOS>BOND
1 3 2 un
2 4 3 un
3 5 4 un
4 6 5 un
5 1 2 un
6 1 6 un
7 1 7 1
8 2 8 1
9 3 9 1
10 4 10 1
11 5 11 1
12 6 12 1
13 15 14 un
14 16 15 un
15 17 16 un
16 18 17 un
17 13 14 un
18 13 18 un
19 13 19 1
20 14 20 1
21 15 21 1
22 16 22 1
23 17 23 1
24 18 24 1
25 27 26 un
26 28 27 un
27 29 28 un
28 30 29 un
29 25 26 un
30 25 30 un
31 25 31 1
32 26 32 1
33 27 33 1
34 28 34 1
35 29 35 1
36 30 36 1
37 39 38 un
38 40 39 un
39 41 40 un
40 42 41 un
41 37 38 un
42 37 42 un
43 37 43 1
44 38 44 1
45 39 45 1
46 40 46 1
47 41 47 1
48 42 48 1
49 51 50 un
50 52 51 un
51 53 52 un
52 54 53 un
53 49 50 un
54 49 54 un
55 49 55 1
56 50 56 1
57 51 57 1
58 52 58 1
59 53 59 1
60 54 60 1
61 61 62 2
62 63 64 2
63 65 66 2
64 67 68 2
65 69 70 2
66 71 72 2
67 73 74 2
68 75 76 2
69 77 78 2
70 79 80 2
71 81 82 2
72 83 84 2
73 85 86 2
74 87 88 2
75 89 90 2
@<TRIPOS>CRYSIN
14.9804 14.9804 14.9804 90 90 90 1 1
