@<TRIPOS>MOLECULE
Given1
482 549
SMALL
USER_CHARGES


@<TRIPOS>ATOM
1 C -8.96237 -3.16977 -0.319371 C 0.0 **** 0.0
2 C -8.27772 -4.2805 0.207517 C 0.0 **** 0.0
3 C -6.88732 -4.2073 0.42256 C 0.0 **** 0.0
4 C -6.19924 -3.02805 0.128267 C 0.0 **** 0.0
5 C -6.88662 -1.8936 -0.348189 C 0.0 **** 0.0
6 C -8.27694 -1.95701 -0.551957 C 0.0 **** 0.0
7 C -4.71413 -2.92611 0.316943 C 0.0 **** 0.0
8 C -3.98899 -4.18438 0.694489 C 0.0 **** 0.0
9 C -4.65646 -5.34778 1.00599 C 0.0 **** 0.0
10 C -6.16141 -5.40991 0.973411 C 0.0 **** 0.0
11 C -3.92622 -6.54015 1.33455 C 0.0 **** 0.0
12 C -2.53577 -6.56654 1.29549 C 0.0 **** 0.0
13 C -1.82306 -5.34565 1.03367 C 0.0 **** 0.0
14 C -2.56092 -4.14825 0.728009 C 0.0 **** 0.0
15 C -1.89553 -2.93105 0.517079 C 0.0 **** 0.0
16 C -0.506398 -2.83577 0.453081 C 0.0 **** 0.0
17 C 0.253003 -4.05695 0.5866 C 0.0 **** 0.0
18 C -0.413049 -5.21178 1.06756 C 0.0 **** 0.0
19 C 1.62358 -4.05528 0.165753 C 0.0 **** 0.0
20 C 2.28177 -2.86169 -0.0985547 C 0.0 **** 0.0
21 C 1.62413 -1.60598 0.130681 C 0.0 **** 0.0
22 C 0.210682 -1.58214 0.315731 C 0.0 **** 0.0
23 C 3.61319 -2.99714 -0.800271 C 0.0 **** 0.0
24 C 3.42413 -3.90066 -2.0353 C 0.0 **** 0.0
25 C 2.99808 -5.32627 -1.59833 C 0.0 **** 0.0
26 C 2.39115 -5.31335 -0.168561 C 0.0 **** 0.0
27 C -0.44695 -0.299936 0.400172 C 0.0 **** 0.0
28 C 0.297702 0.903183 0.358248 C 0.0 **** 0.0
29 C 1.70793 0.87642 0.254665 C 0.0 **** 0.0
30 C 2.3708 -0.366258 0.171895 C 0.0 **** 0.0
31 C 2.48988 2.09731 0.231399 C 0.0 **** 0.0
32 C 1.77295 3.38682 0.314222 C 0.0 **** 0.0
33 C 0.394624 3.38984 0.399458 C 0.0 **** 0.0
34 C -0.387322 2.16326 0.443608 C 0.0 **** 0.0
35 C -0.35112 4.6893 0.490516 C 0.0 **** 0.0
36 C 0.320531 5.75197 -0.374793 C 0.0 **** 0.0
37 C 1.78367 5.859 -0.0369721 C 0.0 **** 0.0
38 C 2.49108 4.67954 0.302966 C 0.0 **** 0.0
39 N 3.79899 4.68389 0.596806 N 0.0 **** 0.0
40 C 4.47709 5.83401 0.520685 C 0.0 **** 0.0
41 C 3.86169 7.06256 0.198742 C 0.0 **** 0.0
42 C 2.48548 7.07524 -0.0698515 C 0.0 **** 0.0
43 C 1.77902 8.3681 -0.4169 C 0.0 **** 0.0
44 C 2.59557 9.62297 -0.0892574 C 0.0 **** 0.0
45 C 4.04205 9.46173 -0.55416 C 0.0 **** 0.0
46 C 4.71042 8.31282 0.200085 C 0.0 **** 0.0
47 C 6.11117 8.01428 -0.33762 C 0.0 **** 0.0
48 C 6.75726 6.84115 0.356861 C 0.0 **** 0.0
49 C 5.92814 5.78055 0.777965 C 0.0 **** 0.0
50 C 6.50071 4.65418 1.38404 C 0.0 **** 0.0
51 C 7.87577 4.59771 1.57417 C 0.0 **** 0.0
52 C 8.71841 5.63913 1.15419 C 0.0 **** 0.0
53 C 8.15244 6.76868 0.525876 C 0.0 **** 0.0
54 C -9.03665 -0.744239 -1.04705 C 0.0 **** 0.0
55 C -8.9785 -0.606235 -2.57659 C 0.0 **** 0.0
56 C -10.4381 -3.28317 -0.638601 C 0.0 **** 0.0
57 C -6.08387 -0.647569 -0.639598 C 0.0 **** 0.0
58 C -9.02979 -5.55036 0.537049 C 0.0 **** 0.0
59 C -4.70399 -7.78886 1.68606 C 0.0 **** 0.0
60 C -1.8087 -7.88706 1.42015 C 0.0 **** 0.0
61 O 0.313387 -6.23099 1.64167 O 0.0 **** 0.0
62 C 4.12893 -6.35977 -1.61617 C 0.0 **** 0.0
63 C 4.65644 -3.85577 -2.94194 C 0.0 **** 0.0
64 O 3.69759 -0.389193 0.166661 O 0.0 **** 0.0
65 O -1.76822 -0.203437 0.521021 O 0.0 **** 0.0
66 O -1.66344 2.22552 0.567954 O 0.0 **** 0.0
67 O 3.75513 2.03075 0.121255 O 0.0 **** 0.0
68 C 9.02439 7.89423 0.0192485 C 0.0 **** 0.0
69 C 10.2058 5.51829 1.37507 C 0.0 **** 0.0
70 H -4.26332 -2.53086 -0.610149 H 0.0 **** 0.0
71 H -4.49509 -2.14255 1.06834 H 0.0 **** 0.0
72 H -6.52927 -5.60622 1.99972 H 0.0 **** 0.0
73 H -6.46339 -6.30582 0.404756 H 0.0 **** 0.0
74 H -2.47598 -2.02898 0.412798 H 0.0 **** 0.0
75 H 4.01085 -2.03049 -1.11008 H 0.0 **** 0.0
76 H 4.36773 -3.44932 -0.130099 H 0.0 **** 0.0
77 H 2.58262 -3.46625 -2.59966 H 0.0 **** 0.0
78 H 2.21058 -5.67203 -2.28639 H 0.0 **** 0.0
79 H 3.23805 -5.40463 0.539051 H 0.0 **** 0.0
80 H 1.78237 -6.2166 -0.0650828 H 0.0 **** 0.0
81 H -1.40001 4.53271 0.208724 H 0.0 **** 0.0
82 H -0.351697 5.01864 1.54663 H 0.0 **** 0.0
83 H -0.192448 6.71358 -0.249716 H 0.0 **** 0.0
84 H 0.21277 5.47512 -1.4407 H 0.0 **** 0.0
85 H 1.53795 8.35613 -1.4952 H 0.0 **** 0.0
86 H 0.809705 8.41392 0.10327 H 0.0 **** 0.0
87 H 2.5887 9.78949 1.00093 H 0.0 **** 0.0
88 H 2.1236 10.5027 -0.55236 H 0.0 **** 0.0
89 H 4.61549 10.3897 -0.401075 H 0.0 **** 0.0
90 H 4.06186 9.24026 -1.63588 H 0.0 **** 0.0
91 H 4.82719 8.62127 1.25865 H 0.0 **** 0.0
92 H 6.03636 7.80303 -1.42217 H 0.0 **** 0.0
93 H 6.72623 8.91967 -0.240611 H 0.0 **** 0.0
94 H 5.84946 3.83155 1.67932 H 0.0 **** 0.0
95 H 8.32103 3.72158 2.05068 H 0.0 **** 0.0
96 H -8.63317 0.166565 -0.580624 H 0.0 **** 0.0
97 H -10.0853 -0.797762 -0.723802 H 0.0 **** 0.0
98 H -9.38533 -1.50751 -3.06016 H 0.0 **** 0.0
99 H -7.93767 -0.493506 -2.91485 H 0.0 **** 0.0
100 H -9.55412 0.265351 -2.9251 H 0.0 **** 0.0
101 H -10.7157 -4.31407 -0.89262 H 0.0 **** 0.0
102 H -10.7169 -2.65096 -1.49162 H 0.0 **** 0.0
103 H -11.0667 -2.97565 0.21548 H 0.0 **** 0.0
104 H -5.32173 -0.84679 -1.41105 H 0.0 **** 0.0
105 H -5.53157 -0.309191 0.252483 H 0.0 **** 0.0
106 H -6.69755 0.186455 -0.99505 H 0.0 **** 0.0
107 H -8.51493 -6.14437 1.30241 H 0.0 **** 0.0
108 H -9.14529 -6.196 -0.3516 H 0.0 **** 0.0
109 H -10.0393 -5.3341 0.911812 H 0.0 **** 0.0
110 H -4.15623 -8.41987 2.39727 H 0.0 **** 0.0
111 H -4.91507 -8.40317 0.792945 H 0.0 **** 0.0
112 H -5.67116 -7.54444 2.14213 H 0.0 **** 0.0
113 H -0.969176 -7.93572 0.716668 H 0.0 **** 0.0
114 H -2.47764 -8.72709 1.20157 H 0.0 **** 0.0
115 H -1.38399 -8.03662 2.42523 H 0.0 **** 0.0
116 H 1.20569 -5.89767 1.82711 H 0.0 **** 0.0
117 H 4.52558 -6.51949 -2.62826 H 0.0 **** 0.0
118 H 3.76768 -7.32702 -1.23406 H 0.0 **** 0.0
119 H 4.96168 -6.03563 -0.971627 H 0.0 **** 0.0
120 H 4.84524 -2.8245 -3.27523 H 0.0 **** 0.0
121 H 4.52116 -4.48386 -3.83547 H 0.0 **** 0.0
122 H 5.55475 -4.20916 -2.414 H 0.0 **** 0.0
123 H 3.96265 0.647719 0.147403 H 0.0 **** 0.0
124 H -1.95955 0.842695 0.562916 H 0.0 **** 0.0
125 H 8.76887 8.15948 -1.01799 H 0.0 **** 0.0
126 H 10.0887 7.63399 0.0474482 H 0.0 **** 0.0
127 H 8.88931 8.80782 0.623157 H 0.0 **** 0.0
128 H 10.7576 5.51968 0.420724 H 0.0 **** 0.0
129 H 10.4448 4.58422 1.9013 H 0.0 **** 0.0
130 H 10.597 6.3581 1.97137 H 0.0 **** 0.0
131 C 0.294674 3.0632 6.47621 C 0.0 **** 0.0
132 C -0.174439 1.89306 7.37139 C 0.0 **** 0.0
133 C -1.54632 2.20697 8.00175 C 0.0 **** 0.0
134 C -1.56858 3.67607 8.45257 C 0.0 **** 0.0
135 C -1.33668 4.59268 7.222770000000001 C 0.0 **** 0.0
136 O -0.803147 3.89611 6.08958 O 0.0 **** 0.0
137 C -0.53314 3.93391 9.568962 C 0.0 **** 0.0
138 C -0.437814 2.74302 10.56862 C 0.0 **** 0.0
139 C -1.70826 1.91 10.550905 C 0.0 **** 0.0
140 C -1.89608 1.25287 9.17215 C 0.0 **** 0.0
141 O -0.215295 3.1643 11.92634 O 0.0 **** 0.0
142 C 0.716395 4.24946 12.03153 C 0.0 **** 0.0
143 C 0.0196367 5.52787 11.54743 C 0.0 **** 0.0
144 C -0.869965 5.2306 10.306721 C 0.0 **** 0.0
145 C 0.977465 6.68812 11.40859 C 0.0 **** 0.0
146 C 2.40018 6.44263 11.14617 C 0.0 **** 0.0
147 C 2.93938 5.15762 11.19418 C 0.0 **** 0.0
148 C 2.049 3.9393 11.34321 C 0.0 **** 0.0
149 C 4.34516 4.96536 11.0762 C 0.0 **** 0.0
150 C 5.20193 6.09883 10.94378 C 0.0 **** 0.0
151 C 4.60791 7.3806 10.846626 C 0.0 **** 0.0
152 C 3.24402 7.57328 10.921104 C 0.0 **** 0.0
153 C 2.61932 8.92972 10.712572 C 0.0 **** 0.0
154 C 1.41754 9.14747 11.63463 C 0.0 **** 0.0
155 C 0.531236 7.93973 11.66079 C 0.0 **** 0.0
156 O 5.38886 8.49991 10.650672 O 0.0 **** 0.0
157 C 6.7618 8.40262 10.695472 C 0.0 **** 0.0
158 C 7.42576 7.16852 10.784961 C 0.0 **** 0.0
159 C 6.62111 5.96587 10.88235 C 0.0 **** 0.0
160 C 2.81911 2.81154 11.97373 C 0.0 **** 0.0
161 C 4.03336 2.44595 11.15856 C 0.0 **** 0.0
162 C 4.94673 3.6682 11.10262 C 0.0 **** 0.0
163 C 4.70733 1.16999 11.60105 C 0.0 **** 0.0
164 C 4.44394 0.625349 12.809989999999999 C 0.0 **** 0.0
165 C 3.39293 1.15224 13.7356 C 0.0 **** 0.0
166 C 2.53146 2.22047 13.136289999999999 C 0.0 **** 0.0
167 C 5.15634 -0.637209 13.22208 C 0.0 **** 0.0
168 C 6.5688 -0.671254 12.64109 C 0.0 **** 0.0
169 C 6.54218 -0.386577 11.16004 C 0.0 **** 0.0
170 C 5.62898 0.487764 10.673059 C 0.0 **** 0.0
171 C 5.51896 0.780084 9.195115 C 0.0 **** 0.0
172 C 6.27849 -0.228875 8.32997 C 0.0 **** 0.0
173 C 7.68099 -0.437828 8.91198 C 0.0 **** 0.0
174 C 7.57534 -1.0605 10.304653 C 0.0 **** 0.0
175 C 7.15838 4.68144 10.948171 C 0.0 **** 0.0
176 C 6.32087 3.54773 11.05417 C 0.0 **** 0.0
177 C 8.84095 7.19925 10.787873 C 0.0 **** 0.0
178 C 9.60889 5.97825 10.835125 C 0.0 **** 0.0
179 S 8.87804 4.375 10.895096 S 0.0 **** 0.0
180 C 10.9802 6.00657 10.825031 C 0.0 **** 0.0
181 C 11.6956 7.23344 10.787601 C 0.0 **** 0.0
182 C 10.976 8.46688 10.745992 C 0.0 **** 0.0
183 C 9.55277 8.44971 10.736283 C 0.0 **** 0.0
184 C 11.6961 9.68915 10.691631 C 0.0 **** 0.0
185 C 13.1254 9.67981 10.697442 C 0.0 **** 0.0
186 C 13.8286 8.42491 10.791257 C 0.0 **** 0.0
187 C 13.0874 7.23263 10.794814 C 0.0 **** 0.0
188 C 15.2521 8.44521 10.892141 C 0.0 **** 0.0
189 C 15.9277 9.64165 10.741413 C 0.0 **** 0.0
190 C 15.2813 10.898 10.542951 C 0.0 **** 0.0
191 C 13.8582 10.8999 10.592454 C 0.0 **** 0.0
192 C 8.82803 9.68796 10.674873999999999 C 0.0 **** 0.0
193 C 7.42341 9.61027 10.643714 C 0.0 **** 0.0
194 C 10.9761 10.9292 10.635789 C 0.0 **** 0.0
195 C 9.55066 10.9428 10.644103 C 0.0 **** 0.0
196 C 13.138 12.1388 10.524827 C 0.0 **** 0.0
197 C 11.7192 12.1456 10.56858 C 0.0 **** 0.0
198 C 15.9967 12.1339 10.334274 C 0.0 **** 0.0
199 C 15.2638 13.3585 10.327294 C 0.0 **** 0.0
200 C 13.8492 13.3637 10.429977 C 0.0 **** 0.0
201 O 17.2972 9.59827 10.889417 O 0.0 **** 0.0
202 C 17.9923 8.61215 10.0751747 C 0.0 **** 0.0
203 C 17.2578 7.24931 10.0776861 C 0.0 **** 0.0
204 C 16.2041 7.29201 11.19311 C 0.0 **** 0.0
205 C 18.2447 6.08147 10.192553 C 0.0 **** 0.0
206 C 19.4554 6.36366 9.297471999999999 C 0.0 **** 0.0
207 C 20.2984 7.49495 9.893928 C 0.0 **** 0.0
208 C 19.4154 8.55963 10.627319 C 0.0 **** 0.0
209 C 20.0833 9.94281 10.543466 C 0.0 **** 0.0
210 C 21.6033 9.83637 10.657585 C 0.0 **** 0.0
211 C 22.1653 8.99696 9.477465 C 0.0 **** 0.0
212 N 21.1876 8.07133 8.88426 N 0.0 **** 0.0
213 C 8.90133 12.227 10.628946 C 0.0 **** 0.0
214 C 9.62714 13.4073 10.616442 C 0.0 **** 0.0
215 C 11.044 13.4034 10.548888 C 0.0 **** 0.0
216 O 9.03799 14.6494 10.652773 O 0.0 **** 0.0
217 C 7.6414 14.6543 11.02339 C 0.0 **** 0.0
218 C 6.95893 13.5472 10.238322 C 0.0 **** 0.0
219 O 7.52502 12.2851 10.642531 O 0.0 **** 0.0
220 C 7.06852 13.749 8.71204 C 0.0 **** 0.0
221 C 7.23008 15.2319 8.31519 C 0.0 **** 0.0
222 C 6.47055 16.1356 9.2928 C 0.0 **** 0.0
223 C 7.07004 16.0386 10.711061 C 0.0 **** 0.0
224 C 13.1492 14.6154 10.409849 C 0.0 **** 0.0
225 C 11.7571 14.6086 10.480285 C 0.0 **** 0.0
226 C 15.9683 14.5883 10.201085 C 0.0 **** 0.0
227 C 15.2394 15.8178 10.213036 C 0.0 **** 0.0
228 C 13.8769 15.8414 10.31342 C 0.0 **** 0.0
229 C 17.3628 14.6137 10.0534787 C 0.0 **** 0.0
230 C 18.0697 13.406 9.981863 C 0.0 **** 0.0
231 C 17.3871 12.2099 10.118456 C 0.0 **** 0.0
232 O 15.9042 17.0284 10.109368 O 0.0 **** 0.0
233 C 17.2766 17.0704 10.0399276 C 0.0 **** 0.0
234 C 18.0354 15.8889 9.9849977 C 0.0 **** 0.0
235 C 19.5529 13.3745 9.718486 C 0.0 **** 0.0
236 C 20.2757 14.7148 9.99456027 C 0.0 **** 0.0
237 C 19.4291 15.9571 9.913625 C 0.0 **** 0.0
238 C 21.4997 14.9015 9.078005 C 0.0 **** 0.0
239 C 22.2419 13.5787 8.93014 C 0.0 **** 0.0
240 C 21.3609 12.5761 8.14358 C 0.0 **** 0.0
241 C 19.8577 12.8795 8.293 C 0.0 **** 0.0
242 C 20.0774 17.2015 9.887058 C 0.0 **** 0.0
243 C 19.3115 18.3959 10.00484483 C 0.0 **** 0.0
244 C 17.8842 18.339 10.0634431 C 0.0 **** 0.0
245 C 22.2755 16.1081 9.532448 C 0.0 **** 0.0
246 C 21.5117 17.2731 9.820762 C 0.0 **** 0.0
247 C 6.27071 0.16797 6.83981 C 0.0 **** 0.0
248 C 7.19673 1.35176 6.53611 C 0.0 **** 0.0
249 C 6.62283 -1.02941 5.95005 C 0.0 **** 0.0
250 O 15.6563 5.98042 11.33633 O 0.0 **** 0.0
251 C 17.1402 19.5594 10.169524 C 0.0 **** 0.0
252 C 17.7817 20.7639 10.248191 C 0.0 **** 0.0
253 C 19.2131 20.8547 10.242713 C 0.0 **** 0.0
254 C 19.9759 19.6489 10.114952 C 0.0 **** 0.0
255 C 21.3945 19.7067 10.131746 C 0.0 **** 0.0
256 C 22.0533 20.9501 10.277765 C 0.0 **** 0.0
257 C 21.2829 22.1515 10.401101 C 0.0 **** 0.0
258 C 19.8809 22.0762 10.377598 C 0.0 **** 0.0
259 C 21.9664 23.3978 10.550265 C 0.0 **** 0.0
260 C 23.3348 23.4503 10.578566 C 0.0 **** 0.0
261 C 24.1232 22.2657 10.453015 C 0.0 **** 0.0
262 C 23.4781 21.0099 10.296675 C 0.0 **** 0.0
263 C 24.2554 19.8205 10.154481 C 0.0 **** 0.0
264 C 23.5893 18.5721 9.99531417 C 0.0 **** 0.0
265 C 22.1665 18.5108 9.9895169 C 0.0 **** 0.0
266 C 25.6804 19.882 10.154784 C 0.0 **** 0.0
267 C 26.29 21.1544 10.337965 C 0.0 **** 0.0
268 C 25.5353 22.2997 10.483095 C 0.0 **** 0.0
269 C 23.6506 16.1653 9.581997 C 0.0 **** 0.0
270 C 24.3438 17.3747 9.853537 C 0.0 **** 0.0
271 C 26.437 18.6546 10.0151754 C 0.0 **** 0.0
272 C 25.7704 17.4245 9.9329861 C 0.0 **** 0.0
273 C 26.5251 16.1138 9.9286836 C 0.0 **** 0.0
274 C 27.8906 16.2359 10.593951 C 0.0 **** 0.0
275 C 28.6664 17.3414 9.897675 C 0.0 **** 0.0
276 C 27.9233 18.6706 9.858117 C 0.0 **** 0.0
277 O 28.5787 19.6905 9.638208 O 0.0 **** 0.0
278 H 0.746831 2.70598 5.54103 H 0.0 **** 0.0
279 H 1.04928 3.67877 7.0067699999999995 H 0.0 **** 0.0
280 H -0.253304 0.961554 6.79085 H 0.0 **** 0.0
281 H 0.569228 1.71408 8.16465 H 0.0 **** 0.0
282 H -2.29806 2.09363 7.20706 H 0.0 **** 0.0
283 H -2.5669 3.89928 8.86498 H 0.0 **** 0.0
284 H -0.647509 5.41782 7.49773 H 0.0 **** 0.0
285 H -2.27971 5.03261 6.869759999999999 H 0.0 **** 0.0
286 H 0.443582 4.06346 9.076071 H 0.0 **** 0.0
287 H 0.406324 2.09062 10.270695 H 0.0 **** 0.0
288 H -2.55966 2.56944 10.784168 H 0.0 **** 0.0
289 H -1.66015 1.15039 11.34413 H 0.0 **** 0.0
290 H -2.93558 0.903695 9.079436 H 0.0 **** 0.0
291 H -1.25762 0.356349 9.10718 H 0.0 **** 0.0
292 H 0.91666 4.35597 13.10753 H 0.0 **** 0.0
293 H -0.678083 5.80193 12.35242 H 0.0 **** 0.0
294 H -0.835105 6.07918 9.607374 H 0.0 **** 0.0
295 H -1.91351 5.14761 10.649943 H 0.0 **** 0.0
296 H 1.83787 3.61214 10.310059 H 0.0 **** 0.0
297 H 3.36489 9.72483 10.839445 H 0.0 **** 0.0
298 H 2.26926 8.98079 9.664671 H 0.0 **** 0.0
299 H 0.85342 10.0385 11.3162 H 0.0 **** 0.0
300 H 1.76641 9.35966 12.66431 H 0.0 **** 0.0
301 H -0.511223 8.07272 11.96486 H 0.0 **** 0.0
302 H 3.67925 2.30971 10.115108 H 0.0 **** 0.0
303 H 3.86273 1.52666 14.66858 H 0.0 **** 0.0
304 H 2.76632 0.303517 14.07641 H 0.0 **** 0.0
305 H 1.63569 2.50277 13.69102 H 0.0 **** 0.0
306 H 5.18147 -0.715603 14.32053 H 0.0 **** 0.0
307 H 4.57969 -1.50977 12.85491 H 0.0 **** 0.0
308 H 7.04968 -1.64405 12.83075 H 0.0 **** 0.0
309 H 7.19295 0.0937845 13.14533 H 0.0 **** 0.0
310 H 4.45574 0.768838 8.89652 H 0.0 **** 0.0
311 H 5.87616 1.80535 8.9888 H 0.0 **** 0.0
312 H 5.74303 -1.19303 8.41401 H 0.0 **** 0.0
313 H 8.18819 0.538334 8.98686 H 0.0 **** 0.0
314 H 8.29202 -1.07362 8.25319 H 0.0 **** 0.0
315 H 8.54901 -1.02112 10.826141 H 0.0 **** 0.0
316 H 7.33463 -2.13816 10.220353 H 0.0 **** 0.0
317 H 6.7723 2.55513 11.096540000000001 H 0.0 **** 0.0
318 H 11.5525 5.07651 10.854034 H 0.0 **** 0.0
319 H 13.601 6.27693 10.765391 H 0.0 **** 0.0
320 H 6.81892 10.5032 10.58593 H 0.0 **** 0.0
321 H 18.024 9.01463 9.045364 H 0.0 **** 0.0
322 H 16.7133 7.14125 9.126065 H 0.0 **** 0.0
323 H 16.7391 7.55626 12.128779999999999 H 0.0 **** 0.0
324 H 18.5708 5.96347 11.24014 H 0.0 **** 0.0
325 H 17.7383 5.14919 9.9127493 H 0.0 **** 0.0
326 H 19.1032 6.66755 8.29514 H 0.0 **** 0.0
327 H 20.0858 5.47577 9.151704 H 0.0 **** 0.0
328 H 20.9601 7.05417 10.659102 H 0.0 **** 0.0
329 H 19.3363 8.2677 11.68816 H 0.0 **** 0.0
330 H 19.8346 10.397 9.568491 H 0.0 **** 0.0
331 H 19.6657 10.6094 11.31006 H 0.0 **** 0.0
332 H 21.8605 9.35987 11.61726 H 0.0 **** 0.0
333 H 22.0634 10.8374 10.666265 H 0.0 **** 0.0
334 H 23.0346 8.41014 9.820065 H 0.0 **** 0.0
335 H 22.5227 9.65629 8.67233 H 0.0 **** 0.0
336 H 20.6277 8.55909 8.18397 H 0.0 **** 0.0
337 H 7.57738 14.426 12.10035 H 0.0 **** 0.0
338 H 5.90758 13.4824 10.552741 H 0.0 **** 0.0
339 H 7.92846 13.166 8.35108 H 0.0 **** 0.0
340 H 6.16971 13.3209 8.24424 H 0.0 **** 0.0
341 H 6.86939 15.3814 7.28695 H 0.0 **** 0.0
342 H 8.29631 15.5021 8.33206 H 0.0 **** 0.0
343 H 5.41151 15.826 9.313468 H 0.0 **** 0.0
344 H 6.48392 17.1825 8.95605 H 0.0 **** 0.0
345 H 6.30995 16.2872 11.46673 H 0.0 **** 0.0
346 H 7.89216 16.7603 10.83447 H 0.0 **** 0.0
347 H 11.2141 15.5524 10.476321 H 0.0 **** 0.0
348 H 13.3404 16.7908 10.309601 H 0.0 **** 0.0
349 H 17.9563 11.2948 10.073564 H 0.0 **** 0.0
350 H 19.99 12.6245 10.395725 H 0.0 **** 0.0
351 H 20.6642 14.6761 11.03192 H 0.0 **** 0.0
352 H 21.1068 15.1752 8.078 H 0.0 **** 0.0
353 H 22.4688 13.19 9.9375862 H 0.0 **** 0.0
354 H 23.2037 13.7143 8.41521 H 0.0 **** 0.0
355 H 21.5617 11.5572 8.50394 H 0.0 **** 0.0
356 H 21.6338 12.5973 7.07726 H 0.0 **** 0.0
357 H 19.2562 11.9824 8.08221 H 0.0 **** 0.0
358 H 19.5348 13.647 7.57184 H 0.0 **** 0.0
359 H 5.23627 0.473709 6.59879 H 0.0 **** 0.0
360 H 7.07529 1.67773 5.49214 H 0.0 **** 0.0
361 H 8.25044 1.06519 6.677 H 0.0 **** 0.0
362 H 6.99248 2.21472 7.1876 H 0.0 **** 0.0
363 H 5.93127 -1.86889 6.1231 H 0.0 **** 0.0
364 H 7.64505 -1.38365 6.15747 H 0.0 **** 0.0
365 H 6.57639 -0.758421 4.88421 H 0.0 **** 0.0
366 H 15.1132 5.98234 12.139520000000001 H 0.0 **** 0.0
367 H 16.0519 19.5077 10.194686 H 0.0 **** 0.0
368 H 17.2074 21.6881 10.332686 H 0.0 **** 0.0
369 H 19.2981 22.9945 10.477123 H 0.0 **** 0.0
370 H 21.3707 24.3077 10.644564 H 0.0 **** 0.0
371 H 23.8514 24.4045 10.700401 H 0.0 **** 0.0
372 H 27.373 21.2121 10.349674 H 0.0 **** 0.0
373 H 26.0341 23.2607 10.625743 H 0.0 **** 0.0
374 H 24.2171 15.264 9.363794 H 0.0 **** 0.0
375 H 25.9262 15.3513 10.446042 H 0.0 **** 0.0
376 H 26.6518 15.7586 8.88839 H 0.0 **** 0.0
377 H 28.4312 15.2783 10.547417 H 0.0 **** 0.0
378 H 27.7517 16.4872 11.65821 H 0.0 **** 0.0
379 H 28.8507 17.0584 8.84473 H 0.0 **** 0.0
380 H 29.6505 17.5361 10.347184 H 0.0 **** 0.0
381 C1 -3.881544 3.656284 19.593791 C 0.0 **** 0.0
382 C2 -2.717636 2.899667 19.524949 C 0.0 **** 0.0
383 C3 -2.824183 1.519657 19.588869 C 0.0 **** 0.0
384 C4 -4.035522 0.878256 19.719051 C 0.0 **** 0.0
385 C5 -5.204654 1.63573 19.783261 C 0.0 **** 0.0
386 C6 -5.116972 3.024256 19.72127 C 0.0 **** 0.0
387 C7 -3.766968 -0.619672 19.757738 C 0.0 **** 0.0
388 C8 -2.41106 -0.815295 19.638334 C 0.0 **** 0.0
389 C9 -1.705385 0.561155 19.526969 C 0.0 **** 0.0
390 C10 -1.838203 -2.095894 19.631777 C 0.0 **** 0.0
391 C11 -2.654453 -3.24447 19.744149 C 0.0 **** 0.0
392 C12 -4.042459 -3.008815 19.871739 C 0.0 **** 0.0
393 C13 -4.604734 -1.717681 19.884325 C 0.0 **** 0.0
394 C14 -6.094822 -1.514776 20.033468 C 0.0 **** 0.0
395 C15 -6.710099 -2.573312 20.852364 C 0.0 **** 0.0
396 C16 -6.465704 -3.855429 20.171253 C 0.0 **** 0.0
397 C17 -4.946037 -4.115365 19.995652 C 0.0 **** 0.0
398 C18 -4.447276 -5.406752 19.929752 C 0.0 **** 0.0
399 C19 -3.075242 -5.64513 19.794752 C 0.0 **** 0.0
400 C20 -2.114767 -4.576904 19.730056 C 0.0 **** 0.0
401 C21 -0.667133 -4.676431 19.64828 C 0.0 **** 0.0
402 C22 0.067238 -3.495216 19.525163 C 0.0 **** 0.0
403 C23 -0.462803 -2.225269 19.507716 C 0.0 **** 0.0
404 C24 -2.709076 -7.101661 19.696841 C 0.0 **** 0.0
405 C25 -3.754398 -8.20993 19.566029 C 0.0 **** 0.0
406 C26 -5.090996 -7.90478 19.748226 C 0.0 **** 0.0
407 C27 -5.477809 -6.541886 20.023642 C 0.0 **** 0.0
408 C28 -6.075473 -8.894377 19.66289 C 0.0 **** 0.0
409 C29 -5.705708 -10.198731 19.389164 C 0.0 **** 0.0
410 C30 -4.370223 -10.517758 19.191635 C 0.0 **** 0.0
411 C31 -3.384867 -9.534584 19.273871 C 0.0 **** 0.0
412 C32 -4.006121 -11.898408 18.895656 C 0.0 **** 0.0
413 C33 -5.048035 -12.964726 18.812053 C 0.0 **** 0.0
414 C34 -6.21381 -12.615923 19.731634 C 0.0 **** 0.0
415 C35 -6.77518 -11.258627 19.305037 C 0.0 **** 0.0
416 C36 -2.054411 -9.912337 19.054016 C 0.0 **** 0.0
417 C37 -1.713378 -11.231542 18.758766 C 0.0 **** 0.0
418 C38 -2.679294 -12.222195 18.683153 C 0.0 **** 0.0
419 C39 1.505119 -3.695572 19.41644 C 0.0 **** 0.0
420 C40 1.618831 -5.071196 19.542996 C 0.0 **** 0.0
421 C41 0.372552 -5.675753 19.677591 C 0.0 **** 0.0
422 C42 0.429664 -7.066307 19.836058 C 0.0 **** 0.0
423 C43 1.63574 -7.758809 19.846489 C 0.0 **** 0.0
424 C44 2.850112 -7.110148 19.69808 C 0.0 **** 0.0
425 C45 2.84425 -5.736073 19.543522 C 0.0 **** 0.0
426 C46 4.054205 -5.05809 19.40011 C 0.0 **** 0.0
427 C47 5.255616 -5.752397 19.410205 C 0.0 **** 0.0
428 C48 5.248923 -7.137709 19.566832 C 0.0 **** 0.0
429 C49 4.04652 -7.825168 19.713078 C 0.0 **** 0.0
430 C50 4.015494 -9.214763 19.878376 C 0.0 **** 0.0
431 C51 2.793188 -9.857408 20.030567 C 0.0 **** 0.0
432 C52 1.610587 -9.132949 20.017407 C 0.0 **** 0.0
433 O53 -3.811668 5.0418 19.533462 O 0.0 **** 0.0
434 C54 -6.366003 3.843383 19.792419 C 0.0 **** 0.0
435 O55 0.397103 -1.07223 19.379092 O 0.0 **** 0.0
436 C56 6.537608 -4.933041 19.250819 C 0.0 **** 0.0
437 C57 7.831865 -5.762799 19.097374 C 0.0 **** 0.0
438 O58 -0.391085 -11.574354 18.529365 O 0.0 **** 0.0
439 O59 -7.474394 -8.651272 19.843319 O 0.0 **** 0.0
440 O60 5.178529 -10.025263 19.904806 O 0.0 **** 0.0
441 H1 -1.77122 3.366428 19.425486 H 0.0 **** 0.0
442 H2 -6.144135 1.187948 19.876345 H 0.0 **** 0.0
443 H3 -0.983012 0.721349 20.339141 H 0.0 **** 0.0
444 H4 -1.131753 0.658552 18.595232 H 0.0 **** 0.0
445 H5 -6.293687 -0.559034 20.483739 H 0.0 **** 0.0
446 H6 -6.55343 -1.535461 19.035628 H 0.0 **** 0.0
447 H7 -6.255132 -2.584387 21.852657999999998 H 0.0 **** 0.0
448 H8 -7.791333 -2.399359 20.938346 H 0.0 **** 0.0
449 H9 -6.959838 -4.648196 20.734882 H 0.0 **** 0.0
450 H10 -6.922532 -3.807072 19.172786 H 0.0 **** 0.0
451 H11 -1.977607 -7.219618 18.895817 H 0.0 **** 0.0
452 H12 -6.347681 -6.3212 19.393953 H 0.0 **** 0.0
453 H13 -5.425882 -12.999943 17.781336 H 0.0 **** 0.0
454 H14 -4.605627 -13.941156 19.053284 H 0.0 **** 0.0
455 H15 -6.994031 -13.38548 19.652746 H 0.0 **** 0.0
456 H16 -5.858805 -12.555426 20.770688 H 0.0 **** 0.0
457 H17 -7.101745 -11.338919 18.259406 H 0.0 **** 0.0
458 H18 -7.639664 -10.966575 19.915493 H 0.0 **** 0.0
459 H19 -1.281438 -9.203347 19.099934 H 0.0 **** 0.0
460 H20 -2.403987 -13.221381 18.460676 H 0.0 **** 0.0
461 H21 1.894451 -3.338632 18.453228 H 0.0 **** 0.0
462 H22 2.06415 -3.150132 20.189315 H 0.0 **** 0.0
463 H23 -0.373133 -7.61266 19.961259 H 0.0 **** 0.0
464 H24 4.082389 -4.007646 19.282133 H 0.0 **** 0.0
465 H25 6.146688 -7.676675 19.580408 H 0.0 **** 0.0
466 H26 2.764044 -10.909354 20.158808 H 0.0 **** 0.0
467 H27 0.684122 -9.630439 20.136301 H 0.0 **** 0.0
468 H28 -2.866582 5.318998 19.44398 H 0.0 **** 0.0
469 H29 -6.157696 4.812139 20.268285 H 0.0 **** 0.0
470 H30 -7.157937 3.285626 20.312505 H 0.0 **** 0.0
471 H31 -6.700468 4.040362 18.764446 H 0.0 **** 0.0
472 H32 1.347087 -1.251127 19.30137 H 0.0 **** 0.0
473 H33 6.407982 -4.26118 18.390771 H 0.0 **** 0.0
474 H34 8.690118 -5.084094 18.991373 H 0.0 **** 0.0
475 H35 7.755678 -6.400158 18.204804 H 0.0 **** 0.0
476 H36 7.972113 -6.393001 19.988187 H 0.0 **** 0.0
477 H37 0.167479 -10.778304 18.595173 H 0.0 **** 0.0
478 H38 -7.699289 -7.722091 20.037176 H 0.0 **** 0.0
479 H39 5.999935 -9.515043 19.793686 H 0.0 **** 0.0
480 H40 -2.132795 -7.334776 20.596413 H 0.0 **** 0.0
481 H41 -5.908668 -6.523452 21.034727 H 0.0 **** 0.0
482 H42 6.625083 -4.279278 20.129847 H 0.0 **** 0.0
@<TRIPOS>BOND
1 1 2 2
2 1 6 2
3 1 56 1
4 2 58 1
5 2 3 2
6 3 4 2
7 4 5 2
8 4 7 1
9 5 6 2
10 5 57 1
11 7 8 1
12 7 70 1
13 7 71 1
14 8 9 2
15 10 72 1
16 10 73 1
17 10 3 1
18 10 9 1
19 11 59 1
20 11 9 2
21 11 12 2
22 12 60 1
23 12 13 2
24 13 18 2
25 13 14 2
26 14 8 2
27 14 15 2
28 15 16 2
29 15 74 1
30 16 17 1
31 16 22 1
32 17 18 2
33 17 19 2
34 18 61 1
35 19 20 2
36 19 26 1
37 20 21 2
38 20 23 1
39 21 22 2
40 21 30 1
41 22 27 1
42 23 24 1
43 23 75 1
44 23 76 1
45 24 63 1
46 24 25 1
47 24 77 1
48 25 62 1
49 25 26 1
50 25 78 1
51 26 79 1
52 26 80 1
53 27 65 1
54 27 28 2
55 28 29 2
56 28 34 2
57 29 30 2
58 29 31 1
59 30 64 2
60 31 67 2
61 31 32 1
62 32 33 2
63 32 38 1
64 33 34 1
65 33 35 1
66 34 66 2
67 35 36 1
68 35 81 1
69 35 82 1
70 36 37 1
71 36 83 1
72 36 84 1
73 37 38 2
74 37 42 2
75 38 39 ar
76 39 40 ar
77 40 41 2
78 40 49 1
79 41 42 2
80 41 46 1
81 42 43 1
82 43 85 1
83 43 44 1
84 43 86 1
85 44 45 1
86 44 87 1
87 44 88 1
88 45 46 1
89 45 89 1
90 45 90 1
91 46 47 1
92 46 91 1
93 47 48 1
94 47 92 1
95 47 93 1
96 48 49 2
97 48 53 2
98 49 50 2
99 50 51 2
100 50 94 1
101 51 52 2
102 51 95 1
103 52 69 1
104 52 53 2
105 53 68 1
106 54 6 1
107 54 97 1
108 54 96 1
109 54 55 1
110 55 99 1
111 55 98 1
112 100 55 1
113 101 56 1
114 102 56 1
115 103 56 1
116 104 57 1
117 105 57 1
118 106 57 1
119 107 58 1
120 108 58 1
121 109 58 1
122 110 59 1
123 111 59 1
124 112 59 1
125 113 60 1
126 114 60 1
127 115 60 1
128 116 61 1
129 117 62 1
130 118 62 1
131 119 62 1
132 120 63 1
133 121 63 1
134 122 63 1
135 123 64 1
136 124 65 1
137 125 68 1
138 126 68 1
139 127 68 1
140 128 69 1
141 129 69 1
142 130 69 1
143 131 278 1
144 131 279 1
145 131 132 1
146 131 136 1
147 132 133 1
148 133 134 1
149 134 135 1
150 134 137 1
151 135 136 1
152 137 138 1
153 138 139 1
154 140 290 1
155 140 291 1
156 140 133 1
157 140 139 1
158 141 138 1
159 141 142 1
160 142 292 1
161 142 143 1
162 142 148 1
163 143 293 1
164 143 144 1
165 143 145 1
166 144 294 1
167 144 295 1
168 144 137 1
169 145 146 1
170 145 155 2
171 146 147 2
172 146 152 2
173 147 148 1
174 147 149 2
175 148 160 1
176 149 150 2
177 149 162 2
178 150 151 2
179 150 159 2
180 151 152 2
181 151 156 1
182 152 153 1
183 153 154 1
184 154 155 1
185 156 157 1
186 157 158 2
187 157 193 2
188 158 159 1
189 158 177 2
190 159 175 2
191 160 161 1
192 160 166 2
193 161 162 1
194 161 163 1
195 162 176 2
196 163 164 2
197 163 170 1
198 164 165 1
199 164 167 1
200 165 166 1
201 167 168 1
202 168 169 1
203 169 170 2
204 169 174 1
205 170 171 1
206 171 172 1
207 172 173 1
208 173 174 1
209 175 176 2
210 175 179 1
211 177 178 1
212 177 183 2
213 178 179 1
214 178 180 2
215 180 181 2
216 181 182 2
217 181 187 2
218 182 183 2
219 182 184 2
220 183 192 2
221 184 185 2
222 184 194 2
223 185 186 1
224 185 191 2
225 186 187 2
226 186 188 2
227 188 189 2
228 188 204 1
229 189 190 2
230 189 201 1
231 190 191 2
232 190 198 1
233 191 196 2
234 192 193 2
235 192 195 1
236 194 195 2
237 194 197 2
238 195 213 2
239 196 197 2
240 196 200 2
241 197 215 2
242 198 199 2
243 199 200 2
244 199 226 2
245 200 224 2
246 201 202 1
247 202 203 1
248 202 208 1
249 203 204 1
250 203 205 1
251 205 206 1
252 206 207 1
253 207 208 1
254 207 212 1
255 208 209 1
256 209 210 1
257 210 211 1
258 211 212 1
259 213 214 2
260 213 219 1
261 214 215 2
262 214 216 1
263 215 225 2
264 216 217 1
265 217 218 1
266 217 223 1
267 218 219 1
268 218 220 1
269 220 221 1
270 221 222 1
271 222 223 1
272 224 225 2
273 224 228 2
274 226 227 2
275 226 229 2
276 227 228 2
277 230 229 2
278 230 231 2
279 230 235 1
280 231 349 1
281 231 198 2
282 232 227 1
283 232 233 1
284 233 234 2
285 233 244 2
286 234 229 1
287 234 237 2
288 235 350 1
289 235 236 1
290 235 241 1
291 236 351 1
292 236 237 1
293 236 238 1
294 237 242 2
295 238 352 1
296 238 239 1
297 238 245 1
298 239 353 1
299 239 354 1
300 239 240 1
301 240 356 1
302 240 355 1
303 240 241 1
304 241 357 1
305 241 358 1
306 242 243 2
307 242 246 2
308 243 244 2
309 243 254 2
310 244 251 2
311 245 246 2
312 245 269 2
313 246 265 2
314 247 359 1
315 247 172 1
316 247 248 1
317 247 249 1
318 248 360 1
319 248 361 1
320 248 362 1
321 249 363 1
322 249 364 1
323 249 365 1
324 250 366 1
325 250 204 1
326 251 367 1
327 251 252 2
328 252 368 1
329 252 253 2
330 253 254 2
331 253 258 2
332 254 255 2
333 255 256 2
334 255 265 2
335 256 257 2
336 256 262 2
337 257 258 2
338 257 259 2
339 258 369 1
340 259 370 1
341 259 260 2
342 260 371 1
343 260 261 2
344 261 262 2
345 261 268 2
346 262 263 2
347 263 264 2
348 263 266 2
349 264 265 2
350 264 270 2
351 266 267 2
352 266 271 1
353 267 372 1
354 267 268 2
355 268 373 1
356 269 374 1
357 269 270 2
358 270 272 2
359 271 272 2
360 271 276 1
361 272 273 1
362 273 274 1
363 273 375 1
364 273 376 1
365 274 275 1
366 274 377 1
367 274 378 1
368 275 276 1
369 275 379 1
370 275 380 1
371 276 277 2
372 280 132 1
373 281 132 1
374 282 133 1
375 283 134 1
376 284 135 1
377 285 135 1
378 286 137 1
379 287 138 1
380 288 139 1
381 289 139 1
382 296 148 1
383 297 153 1
384 298 153 1
385 299 154 1
386 300 154 1
387 301 155 1
388 302 161 1
389 303 165 1
390 304 165 1
391 305 166 1
392 306 167 1
393 307 167 1
394 308 168 1
395 309 168 1
396 310 171 1
397 311 171 1
398 312 172 1
399 313 173 1
400 314 173 1
401 315 174 1
402 316 174 1
403 317 176 1
404 318 180 1
405 319 187 1
406 320 193 1
407 321 202 1
408 322 203 1
409 323 204 1
410 324 205 1
411 325 205 1
412 326 206 1
413 327 206 1
414 328 207 1
415 329 208 1
416 330 209 1
417 331 209 1
418 332 210 1
419 333 210 1
420 334 211 1
421 335 211 1
422 336 212 1
423 337 217 1
424 338 218 1
425 339 220 1
426 340 220 1
427 341 221 1
428 342 221 1
429 343 222 1
430 344 222 1
431 345 223 1
432 346 223 1
433 347 225 1
434 348 228 1
435 381 382 2
436 381 386 2
437 381 433 1
438 382 441 1
439 382 383 2
440 383 384 2
441 383 389 1
442 384 385 2
443 384 387 1
444 385 442 1
445 385 386 2
446 387 388 2
447 388 389 1
448 390 403 2
449 390 388 2
450 390 391 2
451 391 400 2
452 391 392 2
453 392 397 2
454 392 393 2
455 393 387 2
456 393 394 1
457 394 445 1
458 394 446 1
459 394 395 1
460 395 396 1
461 395 447 1
462 395 448 1
463 396 397 1
464 396 449 1
465 396 450 1
466 397 398 2
467 398 399 2
468 398 407 1
469 399 400 2
470 399 404 1
471 400 401 1
472 401 402 2
473 401 421 1
474 402 403 2
475 402 419 1
476 403 435 1
477 404 405 1
478 404 451 1
479 405 406 2
480 405 411 2
481 406 407 1
482 406 408 2
483 407 452 1
484 408 439 1
485 408 409 2
486 409 410 2
487 409 415 1
488 410 411 2
489 410 412 1
490 411 416 2
491 412 413 1
492 412 418 2
493 413 453 1
494 413 454 1
495 413 414 1
496 414 455 1
497 414 456 1
498 414 415 1
499 415 457 1
500 415 458 1
501 416 417 2
502 416 459 1
503 417 438 1
504 417 418 2
505 418 460 1
506 419 461 1
507 419 462 1
508 419 420 2
509 420 421 2
510 420 425 2
511 421 422 2
512 422 463 1
513 422 423 2
514 423 424 2
515 423 432 2
516 424 425 2
517 424 429 2
518 425 426 2
519 426 464 1
520 426 427 2
521 427 428 2
522 427 436 1
523 428 465 1
524 428 429 2
525 429 430 2
526 430 440 1
527 430 431 2
528 431 466 1
529 431 432 2
530 432 467 1
531 433 468 1
532 434 469 1
533 434 386 1
534 434 470 1
535 434 471 1
536 435 472 1
537 436 473 1
538 436 437 1
539 437 474 1
540 437 475 1
541 437 476 1
542 438 477 1
543 439 478 1
544 440 479 1
545 443 389 1
546 444 389 1
547 480 404 1
548 481 407 1
549 482 436 1
