@<TRIPOS>MOLECULE
Molecule 1  0.000000
18 19
SMALL
USER_CHARGES


@<TRIPOS>ATOM
1 C -2.8408 -4.758 -1.0654 C 0.0 **** 0.0
2 C -3.2295 -3.7252 -0.2186 C 0.0 **** 0.0
3 C -4.178 -3.957 0.7709 C 0.0 **** 0.0
4 C -4.738 -5.2215 0.9136 C 0.0 **** 0.0
5 C -4.3495 -6.2539 0.0671 C 0.0 **** 0.0
6 C -3.4009 -6.0223 -0.9225 C 0.0 **** 0.0
7 C -2.6694 -2.4609 -0.3615 C 0.0 **** 0.0
8 C -1.7208 -2.2293 -1.3511 C 0.0 **** 0.0
9 C -1.3323 -3.2617 -2.1976 C 0.0 **** 0.0
10 C -1.8923 -4.5262 -2.0549 C 0.0 **** 0.0
11 H -4.4826 -3.1477 1.4345 H 0.0 **** 0.0
12 H -5.4817 -5.4036 1.6893 H 0.0 **** 0.0
13 H -4.7888 -7.2451 0.1794 H 0.0 **** 0.0
14 H -3.0964 -6.8316 -1.5861 H 0.0 **** 0.0
15 H -2.9739 -1.6515 0.3021 H 0.0 **** 0.0
16 H -1.2815 -1.2381 -1.4634 H 0.0 **** 0.0
17 H -0.5885 -3.0796 -2.9733 H 0.0 **** 0.0
18 H -1.5877 -5.3355 -2.7185 H 0.0 **** 0.0
@<TRIPOS>BOND
1 1 2 2
2 1 6 2
3 1 10 2
4 2 3 2
5 2 7 2
6 3 4 2
7 4 5 2
8 5 6 2
9 7 8 2
10 8 9 2
11 10 18 1
12 10 9 2
13 11 3 1
14 12 4 1
15 13 5 1
16 14 6 1
17 15 7 1
18 16 8 1
19 17 9 1
