@<TRIPOS>MOLECULE
2022.03.01.Globular.Polymers/PolyAM
102 101
SMALL
USER_CHARGES


@<TRIPOS>ATOM
1 C5 -5.18332185016366 3.52163201937177 -0.927753364120957 C 0.0 **** 0.0
2 C10 -3.75595749726043 3.91573484998771 -1.33938491291073 C 0.0 **** 0.0
3 H14 -5.75373349032655 3.18581747627777 -1.82067468048042 H 0.0 **** 0.0
4 H15 -5.1099222959681 2.65521902489422 -0.238084338785757 H 0.0 **** 0.0
5 C16 -3.02645624905351 2.74683588436078 -1.9381586353095 C 0.0 **** 0.0
6 H19 -3.20483497218573 4.27932723875572 -0.443891459017762 H 0.0 **** 0.0
7 H20 -3.78003227375018 4.73900127853269 -2.08497546659039 H 0.0 **** 0.0
8 N21 -3.40759800717462 2.23441003561944 -3.14304481718687 N 0.0 **** 0.0
9 O24 -2.07846594199804 2.25924245685471 -1.34667281224692 O 0.0 **** 0.0
10 H25 -2.89946128082197 1.42229781754742 -3.55967783827858 H 0.0 **** 0.0
11 H26 -4.20465885637076 2.65019833493675 -3.67460068932783 H 0.0 **** 0.0
12 C28 -7.32347362882349 4.23575991181486 0.291981481429435 C 0.0 **** 0.0
13 C33 -5.93254349809775 4.68133334046663 -0.227461860349429 C 0.0 **** 0.0
14 H36 -7.9551547615089 5.1331586012779 0.47525443500975 H 0.0 **** 0.0
15 H37 -7.83351119561377 3.66415541927432 -0.510630175777531 H 0.0 **** 0.0
16 C38 -6.09123612045201 5.86330631719433 -1.16056364764112 C 0.0 **** 0.0
17 H41 -5.31981412706735 5.0113181683205 0.640828491373013 H 0.0 **** 0.0
18 N42 -6.82022454378922 5.76281915261617 -2.31042786970659 N 0.0 **** 0.0
19 O45 -5.56028551817895 6.92412439794495 -0.878302386698707 O 0.0 **** 0.0
20 H46 -6.92103352366613 6.58523128250153 -2.94659919325326 H 0.0 **** 0.0
21 H47 -7.29428472439843 4.87159439183207 -2.57631743757911 H 0.0 **** 0.0
22 C49 -8.65552167278093 2.79436690244682 1.93735458375795 C 0.0 **** 0.0
23 C54 -7.26854242541924 3.39447268623948 1.59575157615945 C 0.0 **** 0.0
24 H57 -8.70287035729235 2.54544203818273 3.02060695879018 H 0.0 **** 0.0
25 H58 -9.42744693364773 3.57474949305899 1.77639274419619 H 0.0 **** 0.0
26 C59 -6.76662742754327 4.22894625532843 2.75515489424247 C 0.0 **** 0.0
27 H62 -6.55973762536244 2.55229545571735 1.45371015302135 H 0.0 **** 0.0
28 N63 -7.47119052247641 5.30713877696416 3.20769171561685 N 0.0 **** 0.0
29 O66 -5.71605102406732 3.92951516037126 3.297079010387 O 0.0 **** 0.0
30 H67 -7.11258520174632 5.87570917285656 4.0073184790158 H 0.0 **** 0.0
31 H68 -8.38114875686138 5.5812573826878 2.77581425982339 H 0.0 **** 0.0
32 C70 -10.4964660477122 1.17093588578723 1.18455967882414 C 0.0 **** 0.0
33 C75 -8.98783211597087 1.51976531316847 1.11464688221751 C 0.0 **** 0.0
34 H78 -10.6507637040641 0.103984778513807 0.906005785856016 H 0.0 **** 0.0
35 H79 -10.8241572316022 1.27372212660102 2.23851120796499 H 0.0 **** 0.0
36 C80 -8.15881135653257 0.345350517975285 1.59080802665831 C 0.0 **** 0.0
37 H83 -8.72560727294418 1.69712618575431 0.0512899249100666 H 0.0 **** 0.0
38 N84 -8.30787840923427 -0.162236102484307 2.84931984103426 N 0.0 **** 0.0
39 O87 -7.34611683494988 -0.159120141459558 0.834318372000514 O 0.0 **** 0.0
40 H88 -7.72826562421446 -0.971867662207225 3.1652245752842 H 0.0 **** 0.0
41 H89 -9.00426491372084 0.236563280564062 3.5168990524501 H 0.0 **** 0.0
42 C91 -12.8898340813796 1.81678907310596 0.493730753361856 C 0.0 **** 0.0
43 C96 -11.3750879199948 2.05261763569089 0.257064498876079 C 0.0 **** 0.0
44 H99 -13.4634674807432 2.3345264449749 -0.307940355235971 H 0.0 **** 0.0
45 H100 -13.0883403572617 0.729046364671947 0.390143072675273 H 0.0 **** 0.0
46 C101 -11.0498508140191 1.77868042456427 -1.19619631581603 C 0.0 **** 0.0
47 H104 -11.1591704155364 3.11997237539441 0.460309434306381 H 0.0 **** 0.0
48 N105 -10.53414341432 2.76083856417431 -1.99068333068681 N 0.0 **** 0.0
49 O108 -11.2445477413332 0.668684296773718 -1.66369104883891 O 0.0 **** 0.0
50 H109 -10.3069479221849 2.56764554151513 -2.99181746039632 H 0.0 **** 0.0
51 H110 -10.3479054864269 3.7179158367441 -1.61657210886193 H 0.0 **** 0.0
52 C112 -14.9528563640656 2.12584588787636 1.99496706656721 C 0.0 **** 0.0
53 C117 -13.4180802791552 2.30940657398433 1.86819751344234 C 0.0 **** 0.0
54 H120 -15.2921611222813 2.58963929120189 2.9478136821996 H 0.0 **** 0.0
55 H121 -15.4358325707721 2.6906639083881 1.16953266335226 H 0.0 **** 0.0
56 C122 -13.074643862119 3.76644059041899 2.09168170664129 C 0.0 **** 0.0
57 H125 -12.9434041447241 1.70985737749241 2.67024993860874 H 0.0 **** 0.0
58 N126 -12.2447440800429 4.13703912734063 3.10907435454726 N 0.0 **** 0.0
59 O129 -13.532156338338 4.61910742487192 1.34860015075191 O 0.0 **** 0.0
60 H130 -12.0022414031738 5.14251785678635 3.25544631603365 H 0.0 **** 0.0
61 H131 -11.8265576565367 3.4280439219915 3.75167281863064 H 0.0 **** 0.0
62 C133 -16.9685542901996 0.540689563116709 2.19387890202125 C 0.0 **** 0.0
63 C138 -15.4403480919134 0.652497596132045 1.95306148519302 C 0.0 **** 0.0
64 H141 -17.2441382257569 -0.53505327081456 2.2626950906749 H 0.0 **** 0.0
65 H142 -17.1984643758063 0.997233839656254 3.17889456372946 H 0.0 **** 0.0
66 C143 -14.7092748988324 -0.207496718152121 2.96216872601511 C 0.0 **** 0.0
67 H146 -15.2289617791967 0.242674874476053 0.942919943168405 H 0.0 **** 0.0
68 N147 -14.7675406072996 0.0657906720998534 4.2983481094882 N 0.0 **** 0.0
69 O150 -14.0531675101616 -1.15904483642982 2.57342772018437 O 0.0 **** 0.0
70 H151 -14.2562663282034 -0.534274834800047 4.98369457196395 H 0.0 **** 0.0
71 H152 -15.3133454280057 0.877091973444806 4.66340429070866 H 0.0 **** 0.0
72 C154 -19.3630319445298 0.981184126396487 1.36250719068756 C 0.0 **** 0.0
73 C159 -17.8505365968286 1.2161494475098 1.10947385423173 C 0.0 **** 0.0
74 H162 -19.9388982302564 1.39440535972606 0.50493010553303 H 0.0 **** 0.0
75 H163 -19.5454634628832 -0.11332774531188 1.37890384108401 H 0.0 **** 0.0
76 C164 -17.4937515948989 0.735256941819734 -0.281142239210062 C 0.0 **** 0.0
77 H167 -17.6705752935965 2.31133630129862 1.14493765265419 H 0.0 **** 0.0
78 N168 -17.5968747576534 -0.582564339390205 -0.621942410484777 N 0.0 **** 0.0
79 O171 -17.1029439677286 1.53953669566161 -1.11027991022394 O 0.0 **** 0.0
80 H172 -17.3451299073074 -0.901180527574901 -1.58439067004601 H 0.0 **** 0.0
81 H173 -17.9204295319274 -1.29773233278277 0.0659556952839676 H 0.0 **** 0.0
82 C175 -21.4432767646141 1.42089177800566 2.81297857165779 C 0.0 **** 0.0
83 C180 -19.9087014864028 1.60006529630051 2.67753432738176 C 0.0 **** 0.0
84 H183 -21.7911004959491 1.98437349802406 3.70734862201575 H 0.0 **** 0.0
85 H184 -21.9437462145725 1.87879896517685 1.93152027291612 H 0.0 **** 0.0
86 C185 -19.5640267656431 3.06993121606082 2.7892850128844 C 0.0 **** 0.0
87 H188 -19.4352191730458 1.07365399372407 3.53339527755236 H 0.0 **** 0.0
88 N189 -20.0003856416019 3.97068485837164 1.86114308875284 N 0.0 **** 0.0
89 O192 -18.881378280755 3.45512216760385 3.72343145459699 O 0.0 **** 0.0
90 H193 -19.7537131441465 4.9819739435935 1.94860585735256 H 0.0 **** 0.0
91 H194 -20.5804533430298 3.67229293290743 1.04637344413075 H 0.0 **** 0.0
92 H196 -23.9257785910498 0.333421622345195 2.18687320569361 H 0.0 **** 0.0
93 C198 -23.4392758436623 -0.115580203283644 3.07912290763459 C 0.0 **** 0.0
94 C202 -21.9138784022593 -0.049170472978508 2.93512698469506 C 0.0 **** 0.0
95 H205 -23.7706444514589 -1.17345155857218 3.15677193803594 H 0.0 **** 0.0
96 H206 -23.781200061422 0.434406813806082 3.98159080927432 H 0.0 **** 0.0
97 C207 -21.2486149016712 -0.771789385542008 4.08495336665117 C 0.0 **** 0.0
98 H210 -21.6688097126014 -0.57757942601073 1.98827289123291 H 0.0 **** 0.0
99 N211 -21.3930911646575 -0.338836947781399 5.37136198370951 N 0.0 **** 0.0
100 O214 -20.5664050003383 -1.75632831138212 3.85684738849261 O 0.0 **** 0.0
101 H215 -20.9249522754878 -0.84565292227141 6.15570901179532 H 0.0 **** 0.0
102 H216 -21.9668590337697 0.502584624242266 5.59979944970032 H 0.0 **** 0.0
@<TRIPOS>BOND
1 1 2 1
2 1 3 1
3 1 4 1
4 1 13 1
5 2 5 1
6 2 6 1
7 2 7 1
8 5 8 ar
9 5 9 2
10 10 8 1
11 11 8 1
12 12 23 1
13 12 13 1
14 12 14 1
15 12 15 1
16 13 16 1
17 13 17 1
18 16 18 ar
19 16 19 2
20 18 20 1
21 18 21 1
22 22 23 1
23 22 24 1
24 22 25 1
25 22 33 1
26 23 26 1
27 23 27 1
28 26 28 ar
29 26 29 2
30 28 30 1
31 28 31 1
32 32 33 1
33 32 34 1
34 32 35 1
35 32 43 1
36 33 36 1
37 33 37 1
38 36 38 ar
39 36 39 2
40 38 40 1
41 38 41 1
42 42 43 1
43 42 44 1
44 42 45 1
45 42 53 1
46 43 46 1
47 43 47 1
48 46 48 ar
49 46 49 2
50 48 50 1
51 48 51 1
52 52 53 1
53 52 54 1
54 52 55 1
55 52 63 1
56 53 56 1
57 53 57 1
58 56 58 ar
59 56 59 2
60 58 60 1
61 58 61 1
62 62 64 1
63 62 65 1
64 62 73 1
65 62 63 1
66 63 66 1
67 63 67 1
68 66 68 ar
69 66 69 2
70 68 70 1
71 68 71 1
72 72 73 1
73 72 74 1
74 72 75 1
75 72 83 1
76 73 76 1
77 73 77 1
78 76 78 ar
79 76 79 2
80 78 80 1
81 78 81 1
82 82 83 1
83 82 84 1
84 82 85 1
85 82 94 1
86 83 86 1
87 83 87 1
88 86 88 ar
89 86 89 2
90 88 90 1
91 88 91 1
92 92 93 1
93 93 94 1
94 93 95 1
95 93 96 1
96 94 97 1
97 94 98 1
98 97 99 ar
99 100 97 2
100 101 99 1
101 102 99 1
