@<TRIPOS>MOLECULE
Built with Packmol
16712 12534
SMALL
USER_CHARGES


@<TRIPOS>ATOM
1 O 44.179113 15.365136 29.188204 O 0.0 **** 0.0
2 H 44.670864 14.547207 29.114703 H 0.0 **** 0.0
3 H 44.404218 15.852539 28.395743 H 0.0 **** 0.0
4 M 44.270879 15.322825 29.07735 M 0.0 **** 0.0
5 O 31.853356 23.396541 41.319664 O 0.0 **** 0.0
6 H 32.508396 22.800909 41.683497 H 0.0 **** 0.0
7 H 31.052206 22.874537 41.276085 H 0.0 **** 0.0
8 M 31.834652 23.253469 41.36066 M 0.0 **** 0.0
9 O 40.901554 24.988005 10.572497 O 0.0 **** 0.0
10 H 41.413037 24.224211 10.83939 H 0.0 **** 0.0
11 H 39.991659 24.732452 10.724197 H 0.0 **** 0.0
12 M 40.850552 24.857516 10.626082 M 0.0 **** 0.0
13 O 39.33994 44.632491 21.299348 O 0.0 **** 0.0
14 H 39.351442 43.712448 21.5632 H 0.0 **** 0.0
15 H 40.241479 44.81811 21.036664 H 0.0 **** 0.0
16 M 39.456821 44.538475 21.299498 M 0.0 **** 0.0
17 O 13.159691 4.648486 33.954453 O 0.0 **** 0.0
18 H 13.323155 5.524607 33.605284 H 0.0 **** 0.0
19 H 13.995926 4.192473 33.859628 H 0.0 **** 0.0
20 M 13.287665 4.702265 33.897616 M 0.0 **** 0.0
21 O 33.683357 18.63389 20.396306 O 0.0 **** 0.0
22 H 33.603852 17.733798 20.080486 H 0.0 **** 0.0
23 H 33.005577 18.713466 21.067508 H 0.0 **** 0.0
24 M 33.586415 18.528854 20.4418 M 0.0 **** 0.0
25 O 30.035128 12.669927 15.667869 O 0.0 **** 0.0
26 H 30.227387 13.604578 15.59242 H 0.0 **** 0.0
27 H 30.89278 12.245658 15.642232 H 0.0 **** 0.0
28 M 30.16953 12.735262 15.654929 M 0.0 **** 0.0
29 O 24.065248 16.254547 29.709743 O 0.0 **** 0.0
30 H 24.189485 15.683408 28.951723 H 0.0 **** 0.0
31 H 24.936038 16.609869 29.887791 H 0.0 **** 0.0
32 M 24.192624 16.22692 29.6355 M 0.0 **** 0.0
33 O 2.936204 10.574481 27.88665 O 0.0 **** 0.0
34 H 3.868675 10.788951 27.859653 H 0.0 **** 0.0
35 H 2.536026 11.303028 28.361314 H 0.0 **** 0.0
36 M 3.004344 10.695199 27.943957 M 0.0 **** 0.0
37 O 32.419684 41.845886 37.56794 O 0.0 **** 0.0
38 H 32.356111 42.800959 37.572679 H 0.0 **** 0.0
39 H 31.514537 41.545519 37.485977 H 0.0 **** 0.0
40 M 32.295675 41.929696 37.558054 M 0.0 **** 0.0
41 O 34.454467 30.73867 43.706642 O 0.0 **** 0.0
42 H 34.059904 30.023827 43.207093 H 0.0 **** 0.0
43 H 33.946146 30.774348 44.516929 H 0.0 **** 0.0
44 M 34.338887 30.651728 43.74642 M 0.0 **** 0.0
45 O 31.76896 13.279953 42.94375 O 0.0 **** 0.0
46 H 31.503883 12.776766 43.713663 H 0.0 **** 0.0
47 H 31.024906 13.212819 42.34533 H 0.0 **** 0.0
48 M 31.639779 13.206944 42.965703 M 0.0 **** 0.0
49 O 19.893676 40.530435 18.514355 O 0.0 **** 0.0
50 H 20.029428 39.838436 19.161609 H 0.0 **** 0.0
51 H 20.695241 41.052444 18.549423 H 0.0 **** 0.0
52 M 20.013665 40.508674 18.601701 M 0.0 **** 0.0
53 O 42.063572 25.097437 37.941045 O 0.0 **** 0.0
54 H 41.172874 25.43448 37.844678 H 0.0 **** 0.0
55 H 42.368261 25.459022 38.773301 H 0.0 **** 0.0
56 M 41.988556 25.186871 38.035248 M 0.0 **** 0.0
57 O 12.019098 29.533243 38.317198 O 0.0 **** 0.0
58 H 12.360309 28.656313 38.141706 H 0.0 **** 0.0
59 H 11.0678 29.42875 38.298718 H 0.0 **** 0.0
60 M 11.941 29.407608 38.292367 M 0.0 **** 0.0
61 O 33.056887 31.12242 15.008516 O 0.0 **** 0.0
62 H 33.358402 31.619321 15.769046 H 0.0 **** 0.0
63 H 32.70406 31.784343 14.413872 H 0.0 **** 0.0
64 M 33.050318 31.270764 15.029751 M 0.0 **** 0.0
65 O 26.427341 44.564106 41.467583 O 0.0 **** 0.0
66 H 26.054719 45.442748 41.540863 H 0.0 **** 0.0
67 H 27.345152 44.671057 41.717409 H 0.0 **** 0.0
68 M 26.497132 44.690274 41.508944 M 0.0 **** 0.0
69 O 25.142758 11.371685 6.895467 O 0.0 **** 0.0
70 H 26.086018 11.232183 6.979305 H 0.0 **** 0.0
71 H 24.797888 10.521847 6.621482 H 0.0 **** 0.0
72 M 25.219359 11.245037 6.871126 M 0.0 **** 0.0
73 O 34.268714 26.709309 40.725413 O 0.0 **** 0.0
74 H 33.473067 26.656695 40.19588 H 0.0 **** 0.0
75 H 34.935689 26.266051 40.201109 H 0.0 **** 0.0
76 M 34.252242 26.645831 40.590509 M 0.0 **** 0.0
77 O 41.522873 32.51488 23.958229 O 0.0 **** 0.0
78 H 41.342631 33.454794 23.940821 H 0.0 **** 0.0
79 H 42.476845 32.454341 24.008252 H 0.0 **** 0.0
80 M 41.62192 32.627451 23.962404 M 0.0 **** 0.0
81 O 4.647929 8.880348 16.762277 O 0.0 **** 0.0
82 H 3.697663 8.809848 16.671427 H 0.0 **** 0.0
83 H 4.817717 9.822115 16.784068 H 0.0 **** 0.0
84 M 4.548018 8.991881 16.753437 M 0.0 **** 0.0
85 O 32.528745 13.906065 24.316709 O 0.0 **** 0.0
86 H 32.029378 14.715052 24.205349 H 0.0 **** 0.0
87 H 31.864167 13.219278 24.370451 H 0.0 **** 0.0
88 M 32.379746 13.921708 24.309333 M 0.0 **** 0.0
89 O 36.552255 21.775106 8.814788 O 0.0 **** 0.0
90 H 36.005661 22.555218 8.90906 H 0.0 **** 0.0
91 H 35.929414 21.059871 8.685419 H 0.0 **** 0.0
92 M 36.402553 21.783411 8.810295 M 0.0 **** 0.0
93 O 19.300342 39.330597 13.175943 O 0.0 **** 0.0
94 H 18.959469 38.583886 13.668342 H 0.0 **** 0.0
95 H 20.153663 39.037763 12.856069 H 0.0 **** 0.0
96 M 19.365942 39.197522 13.198029 M 0.0 **** 0.0
97 O 3.599577 40.285867 27.813374 O 0.0 **** 0.0
98 H 2.902739 39.6329 27.747953 H 0.0 **** 0.0
99 H 4.409313 39.776027 27.788492 H 0.0 **** 0.0
100 M 3.61403 40.137013 27.801814 M 0.0 **** 0.0
101 O 46.145468 8.135114 30.586627 O 0.0 **** 0.0
102 H 46.021532 9.084255 30.587601 H 0.0 **** 0.0
103 H 47.095363 8.017124 30.584096 H 0.0 **** 0.0
104 M 46.251201 8.241512 30.586428 M 0.0 **** 0.0
105 O 46.985688 12.533849 37.496634 O 0.0 **** 0.0
106 H 47.101083 11.585489 37.556007 H 0.0 **** 0.0
107 H 47.848413 12.865466 37.247708 H 0.0 **** 0.0
108 M 47.1109 12.454898 37.472369 M 0.0 **** 0.0
109 O 23.381577 15.212837 5.442906 O 0.0 **** 0.0
110 H 23.092418 15.165633 6.354162 H 0.0 **** 0.0
111 H 22.661884 15.647043 4.984937 H 0.0 **** 0.0
112 M 23.252431 15.262378 5.500932 M 0.0 **** 0.0
113 O 35.278574 19.22852 28.31724 O 0.0 **** 0.0
114 H 34.693915 19.986204 28.335011 H 0.0 **** 0.0
115 H 35.151466 18.807316 29.167334 H 0.0 **** 0.0
116 M 35.187459 19.271594 28.428338 M 0.0 **** 0.0
117 O 36.571748 15.0732 4.904416 O 0.0 **** 0.0
118 H 37.011843 15.465241 4.150195 H 0.0 **** 0.0
119 H 35.943163 15.737299 5.187403 H 0.0 **** 0.0
120 M 36.547619 15.208399 4.844092 M 0.0 **** 0.0
121 O 19.269748 27.774087 30.176484 O 0.0 **** 0.0
122 H 20.112478 27.32107 30.204947 H 0.0 **** 0.0
123 H 18.619451 27.076708 30.260174 H 0.0 **** 0.0
124 M 19.294382 27.626822 30.190841 M 0.0 **** 0.0
125 O 0.098374 25.141812 25.253901 O 0.0 **** 0.0
126 H 0.000348 24.428162 24.623565 H 0.0 **** 0.0
127 H 1.036964 25.170887 25.439457 H 0.0 **** 0.0
128 M 0.205976 25.054177 25.196964 M 0.0 **** 0.0
129 O 35.81608 13.126563 24.732234 O 0.0 **** 0.0
130 H 35.959774 12.234476 25.048083 H 0.0 **** 0.0
131 H 35.173569 13.495214 25.338455 H 0.0 **** 0.0
132 M 35.752225 13.059557 24.85027 M 0.0 **** 0.0
133 O 23.451324 1.181332 44.786061 O 0.0 **** 0.0
134 H 23.729015 1.50309 45.643725 H 0.0 **** 0.0
135 H 24.267031 1.055887 44.301175 H 0.0 **** 0.0
136 M 23.591293 1.206463 44.833781 M 0.0 **** 0.0
137 O 45.917986 13.914051 15.730706 O 0.0 **** 0.0
138 H 45.345489 13.614594 16.436966 H 0.0 **** 0.0
139 H 46.764429 13.509114 15.919882 H 0.0 **** 0.0
140 M 45.953054 13.82388 15.845333 M 0.0 **** 0.0
141 O 24.381998 30.822781 7.58801 O 0.0 **** 0.0
142 H 24.089202 31.734075 7.581429 H 0.0 **** 0.0
143 H 25.337572 30.877791 7.597031 H 0.0 **** 0.0
144 M 24.466842 30.94648 7.588322 M 0.0 **** 0.0
145 O 30.169229 42.510997 3.177683 O 0.0 **** 0.0
146 H 30.897573 41.889976 3.169022 H 0.0 **** 0.0
147 H 30.391247 43.131607 3.871787 H 0.0 **** 0.0
148 M 30.290887 42.510945 3.265429 M 0.0 **** 0.0
149 O 25.825739 40.929558 15.481711 O 0.0 **** 0.0
150 H 25.765983 40.246366 14.813948 H 0.0 **** 0.0
151 H 26.277984 41.652017 15.0461 H 0.0 **** 0.0
152 M 25.875983 40.934585 15.340465 M 0.0 **** 0.0
153 O 32.673298 35.521082 27.867905 O 0.0 **** 0.0
154 H 32.009096 36.042921 28.318179 H 0.0 **** 0.0
155 H 32.294489 34.643567 27.815933 H 0.0 **** 0.0
156 M 32.539779 35.475551 27.918892 M 0.0 **** 0.0
157 O 20.882985 29.448258 26.556048 O 0.0 **** 0.0
158 H 20.647532 28.522049 26.501947 H 0.0 **** 0.0
159 H 20.049467 29.900579 26.685975 H 0.0 **** 0.0
160 M 20.746143 29.387594 26.565754 M 0.0 **** 0.0
161 O 21.790644 29.036801 14.449909 O 0.0 **** 0.0
162 H 21.079082 29.522973 14.866496 H 0.0 **** 0.0
163 H 22.550059 29.615173 14.520639 H 0.0 **** 0.0
164 M 21.79677 29.173076 14.512292 M 0.0 **** 0.0
165 O 18.144897 22.122243 33.152046 O 0.0 **** 0.0
166 H 17.358075 21.664194 32.856527 H 0.0 **** 0.0
167 H 17.918735 22.450888 34.022145 H 0.0 **** 0.0
168 M 18.015222 22.105678 33.225599 M 0.0 **** 0.0
169 O 1.440468 14.325171 21.719765 O 0.0 **** 0.0
170 H 0.557125 14.240675 21.360886 H 0.0 **** 0.0
171 H 1.317399 14.770979 22.557822 H 0.0 **** 0.0
172 M 1.311635 14.371424 21.781106 M 0.0 **** 0.0
173 O 17.735264 3.451548 42.91436 O 0.0 **** 0.0
174 H 17.315504 3.53479 42.058147 H 0.0 **** 0.0
175 H 17.101532 3.821015 43.529264 H 0.0 **** 0.0
176 M 17.600404 3.5095 42.88347 M 0.0 **** 0.0
177 O 12.134131 16.516976 5.069496 O 0.0 **** 0.0
178 H 12.319215 15.644533 5.41708 H 0.0 **** 0.0
179 H 12.455928 16.48956 4.168428 H 0.0 **** 0.0
180 M 12.199018 16.401783 4.998643 M 0.0 **** 0.0
181 O 28.39496 14.436199 9.714583 O 0.0 **** 0.0
182 H 29.324322 14.665358 9.71347 H 0.0 **** 0.0
183 H 28.377963 13.50374 9.930129 H 0.0 **** 0.0
184 M 28.511754 14.346168 9.742033 M 0.0 **** 0.0
185 O 46.87488 46.758833 19.045769 O 0.0 **** 0.0
186 H 47.735101 46.340112 19.076114 H 0.0 **** 0.0
187 H 47.064956 47.696848 19.030651 H 0.0 **** 0.0
188 M 47.009331 46.825309 19.047718 M 0.0 **** 0.0
189 O 45.275751 30.700669 11.064783 O 0.0 **** 0.0
190 H 44.435299 30.245154 11.113518 H 0.0 **** 0.0
191 H 45.047583 31.629638 11.099189 H 0.0 **** 0.0
192 M 45.138955 30.761277 11.075426 M 0.0 **** 0.0
193 O 2.077309 3.98324 17.928065 O 0.0 **** 0.0
194 H 1.208583 4.365365 17.803464 H 0.0 **** 0.0
195 H 2.595882 4.323239 17.19888 H 0.0 **** 0.0
196 M 2.032485 4.075681 17.81877 M 0.0 **** 0.0
197 O 41.09514 22.149189 30.270336 O 0.0 **** 0.0
198 H 41.913404 22.438399 29.866566 H 0.0 **** 0.0
199 H 40.409382 22.559258 29.74326 H 0.0 **** 0.0
200 M 41.112102 22.238706 30.151176 M 0.0 **** 0.0
201 O 36.872875 7.452831 20.136409 O 0.0 **** 0.0
202 H 37.820279 7.329927 20.076843 H 0.0 **** 0.0
203 H 36.763786 8.381248 20.34225 H 0.0 **** 0.0
204 M 36.98019 7.555947 20.155134 M 0.0 **** 0.0
205 O 13.640643 14.648923 16.114632 O 0.0 **** 0.0
206 H 14.407015 14.083064 16.021323 H 0.0 **** 0.0
207 H 14.00219 15.531878 16.191469 H 0.0 **** 0.0
208 M 13.785031 14.689515 16.112523 M 0.0 **** 0.0
209 O 34.795296 9.900071 18.180284 O 0.0 **** 0.0
210 H 34.090676 9.315855 18.460339 H 0.0 **** 0.0
211 H 35.567937 9.58682 18.650526 H 0.0 **** 0.0
212 M 34.804003 9.785184 18.276331 M 0.0 **** 0.0
213 O 2.208164 8.215629 26.500149 O 0.0 **** 0.0
214 H 2.718906 8.244694 27.309177 H 0.0 **** 0.0
215 H 2.700462 8.760159 25.885854 H 0.0 **** 0.0
216 M 2.336566 8.289056 26.525077 M 0.0 **** 0.0
217 O 21.32041 1.34964 48.003913 O 0.0 **** 0.0
218 H 22.153974 1.798351 47.862284 H 0.0 **** 0.0
219 H 20.66492 2.046627 47.976176 H 0.0 **** 0.0
220 M 21.343206 1.496304 47.982232 M 0.0 **** 0.0
221 O -0.040784 36.080885 25.2782 O 0.0 **** 0.0
222 H 0.014235 37.026712 25.141771 H 0.0 **** 0.0
223 H 0.854881 35.816137 25.487774 H 0.0 **** 0.0
224 M 0.080915 36.168071 25.287563 M 0.0 **** 0.0
225 O 20.878117 15.194595 41.593925 O 0.0 **** 0.0
226 H 20.41855 14.39634 41.854339 H 0.0 **** 0.0
227 H 20.541725 15.868673 42.184423 H 0.0 **** 0.0
228 M 20.776224 15.178699 41.702853 M 0.0 **** 0.0
229 O 8.671168 16.091005 27.359996 O 0.0 **** 0.0
230 H 8.679803 17.014131 27.107029 H 0.0 **** 0.0
231 H 7.832117 15.971958 27.805024 H 0.0 **** 0.0
232 M 8.564865 16.193938 27.384582 M 0.0 **** 0.0
233 O 34.408099 39.238657 11.083115 O 0.0 **** 0.0
234 H 35.174421 39.809251 11.14143 H 0.0 **** 0.0
235 H 34.769933 38.352906 11.055748 H 0.0 **** 0.0
236 M 34.552517 39.198313 11.087076 M 0.0 **** 0.0
237 O 7.103019 7.615327 19.938245 O 0.0 **** 0.0
238 H 7.230499 8.331369 19.315942 H 0.0 **** 0.0
239 H 6.64087 8.016463 20.674273 H 0.0 **** 0.0
240 M 7.060177 7.75834 19.952804 M 0.0 **** 0.0
241 O 23.924122 44.867948 40.94048 O 0.0 **** 0.0
242 H 23.889148 45.731143 41.35267 H 0.0 **** 0.0
243 H 23.376799 44.313905 41.496989 H 0.0 **** 0.0
244 M 23.849581 44.907523 41.064485 M 0.0 **** 0.0
245 O 41.031072 37.247421 9.799986 O 0.0 **** 0.0
246 H 41.873565 37.543163 9.455065 H 0.0 **** 0.0
247 H 41.070066 36.292737 9.742672 H 0.0 **** 0.0
248 M 41.143913 37.163068 9.748495 M 0.0 **** 0.0
249 O 9.571042 45.067307 15.120205 O 0.0 **** 0.0
250 H 9.374558 44.281283 15.6299 H 0.0 **** 0.0
251 H 9.718511 45.748284 15.776522 H 0.0 **** 0.0
252 M 9.564768 45.053859 15.269469 M 0.0 **** 0.0
253 O 32.605163 29.1746 24.824441 O 0.0 **** 0.0
254 H 32.419191 29.998164 25.275424 H 0.0 **** 0.0
255 H 31.748277 28.762471 24.714325 H 0.0 **** 0.0
256 M 32.471664 29.227269 24.868076 M 0.0 **** 0.0
257 O 41.617703 5.516726 -0.004816 O 0.0 **** 0.0
258 H 41.312324 6.093042 0.695778 H 0.0 **** 0.0
259 H 41.123362 4.706375 0.118421 H 0.0 **** 0.0
260 M 41.515329 5.486767 0.100645 M 0.0 **** 0.0
261 O 25.12029 34.765876 26.906038 O 0.0 **** 0.0
262 H 25.523064 33.93826 26.643257 H 0.0 **** 0.0
263 H 24.435501 34.51352 27.5254 H 0.0 **** 0.0
264 M 25.084189 34.627626 26.951685 M 0.0 **** 0.0
265 O 42.175444 21.280133 26.905871 O 0.0 **** 0.0
266 H 42.162368 22.139178 27.327888 H 0.0 **** 0.0
267 H 43.00052 21.263534 26.420893 H 0.0 **** 0.0
268 M 42.27939 21.387977 26.897811 M 0.0 **** 0.0
269 O 15.892559 1.578125 16.793416 O 0.0 **** 0.0
270 H 16.578035 1.366815 17.427214 H 0.0 **** 0.0
271 H 15.14254 1.04949 17.065895 H 0.0 **** 0.0
272 M 15.884297 1.483402 16.909431 M 0.0 **** 0.0
273 O 10.733495 35.201978 10.181626 O 0.0 **** 0.0
274 H 11.137446 36.034902 10.425121 H 0.0 **** 0.0
275 H 9.810829 35.414667 10.041338 H 0.0 **** 0.0
276 M 10.667093 35.33583 10.194837 M 0.0 **** 0.0
277 O 11.28326 5.555021 37.959022 O 0.0 **** 0.0
278 H 10.89745 6.386929 38.233447 H 0.0 **** 0.0
279 H 11.681112 5.201022 38.754401 H 0.0 **** 0.0
280 M 11.284802 5.616199 38.095971 M 0.0 **** 0.0
281 O 35.931602 2.159628 10.060853 O 0.0 **** 0.0
282 H 36.871484 2.315449 9.968278 H 0.0 **** 0.0
283 H 35.833404 1.21361 9.952984 H 0.0 **** 0.0
284 M 36.039348 2.058473 10.035193 M 0.0 **** 0.0
285 O 0.521204 40.559107 12.286469 O 0.0 **** 0.0
286 H 0.023489 41.098935 11.672389 H 0.0 **** 0.0
287 H 0.000952 40.567834 13.089893 H 0.0 **** 0.0
288 M 0.390892 40.629329 12.310707 M 0.0 **** 0.0
289 O 23.589544 17.940194 31.067485 O 0.0 **** 0.0
290 H 22.871083 17.953683 30.43514 H 0.0 **** 0.0
291 H 23.257231 17.417375 31.797182 H 0.0 **** 0.0
292 M 23.455031 17.874994 31.079947 M 0.0 **** 0.0
293 O 29.239221 22.243635 42.527576 O 0.0 **** 0.0
294 H 28.770311 23.077032 42.48513 H 0.0 **** 0.0
295 H 28.549014 21.581892 42.571603 H 0.0 **** 0.0
296 M 29.09084 22.265609 42.527778 M 0.0 **** 0.0
297 O 17.513977 0.519229 35.521216 O 0.0 **** 0.0
298 H 17.168905 0.000622 36.24799 H 0.0 **** 0.0
299 H 17.237418 0.046261 34.73633 H 0.0 **** 0.0
300 M 17.4344 0.392295 35.513777 M 0.0 **** 0.0
301 O 24.12874 8.543439 44.608082 O 0.0 **** 0.0
302 H 24.197806 9.427128 44.969401 H 0.0 **** 0.0
303 H 23.605988 8.649327 43.813257 H 0.0 **** 0.0
304 M 24.070662 8.670117 44.552588 M 0.0 **** 0.0
305 O 36.980771 11.23571 18.307968 O 0.0 **** 0.0
306 H 36.911914 10.955217 17.395383 H 0.0 **** 0.0
307 H 36.53009 12.079762 18.334267 H 0.0 **** 0.0
308 M 36.914263 11.307853 18.194513 M 0.0 **** 0.0
309 O 27.695249 0.256506 38.912588 O 0.0 **** 0.0
310 H 27.09226 0.018116 39.616721 H 0.0 **** 0.0
311 H 27.240471 0.000429 38.110198 H 0.0 **** 0.0
312 M 27.559841 0.193208 38.90001 M 0.0 **** 0.0
313 O 5.635266 42.514555 32.64394 O 0.0 **** 0.0
314 H 5.119425 43.268861 32.359055 H 0.0 **** 0.0
315 H 5.001058 41.800472 32.707933 H 0.0 **** 0.0
316 M 5.488045 42.519704 32.615663 M 0.0 **** 0.0
317 O 12.926429 35.479286 11.934538 O 0.0 **** 0.0
318 H 13.527816 34.877287 12.372899 H 0.0 **** 0.0
319 H 12.058228 35.215426 12.239225 H 0.0 **** 0.0
320 M 12.892274 35.368446 12.029658 M 0.0 **** 0.0
321 O 47.208503 39.65732 21.342633 O 0.0 **** 0.0
322 H 47.530679 40.474698 21.722535 H 0.0 **** 0.0
323 H 47.999821 39.182468 21.088547 H 0.0 **** 0.0
324 M 47.351044 39.701168 21.358739 M 0.0 **** 0.0
325 O 37.486071 38.027102 37.862886 O 0.0 **** 0.0
326 H 37.891661 37.391102 38.452148 H 0.0 **** 0.0
327 H 36.950676 37.498556 37.271092 H 0.0 **** 0.0
328 M 37.469455 37.878025 37.862562 M 0.0 **** 0.0
329 O 9.014509 29.602435 33.237584 O 0.0 **** 0.0
330 H 9.857864 29.845687 33.619434 H 0.0 **** 0.0
331 H 9.208868 28.840057 32.692393 H 0.0 **** 0.0
332 M 9.14735 29.53598 33.216674 M 0.0 **** 0.0
333 O 40.14816 2.504164 46.507547 O 0.0 **** 0.0
334 H 40.038498 3.119546 45.782628 H 0.0 **** 0.0
335 H 39.328351 2.562735 46.998172 H 0.0 **** 0.0
336 M 40.029176 2.590439 46.477555 M 0.0 **** 0.0
337 O 32.776226 38.280129 25.464339 O 0.0 **** 0.0
338 H 31.886391 38.613736 25.349758 H 0.0 **** 0.0
339 H 33.336786 39.047611 25.350437 H 0.0 **** 0.0
340 M 32.734075 38.421082 25.43509 M 0.0 **** 0.0
341 O 43.523815 24.86468 17.80016 O 0.0 **** 0.0
342 H 43.621407 25.73951 18.176162 H 0.0 **** 0.0
343 H 43.043576 25.006302 16.984352 H 0.0 **** 0.0
344 M 43.474831 24.994799 17.743859 M 0.0 **** 0.0
345 O 23.667214 5.026482 5.711904 O 0.0 **** 0.0
346 H 22.713637 4.953414 5.751648 H 0.0 **** 0.0
347 H 23.835574 5.968722 5.703696 H 0.0 **** 0.0
348 M 23.566696 5.137747 5.715941 M 0.0 **** 0.0
349 O 37.487864 24.35096 27.271574 O 0.0 **** 0.0
350 H 36.709849 23.796399 27.329734 H 0.0 **** 0.0
351 H 37.586216 24.529121 26.336258 H 0.0 **** 0.0
352 M 37.400859 24.302776 27.159287 M 0.0 **** 0.0
353 O 47.620624 24.823317 5.918394 O 0.0 **** 0.0
354 H 47.272342 25.600223 5.480964 H 0.0 **** 0.0
355 H 47.073508 24.104343 5.602215 H 0.0 **** 0.0
356 M 47.506002 24.830733 5.821923 M 0.0 **** 0.0
357 O 41.47555 30.162564 40.33621 O 0.0 **** 0.0
358 H 41.230826 30.118336 41.260538 H 0.0 **** 0.0
359 H 41.063841 29.393645 39.941891 H 0.0 **** 0.0
360 M 41.391519 30.058471 40.404058 M 0.0 **** 0.0
361 O 21.575532 35.814153 30.46408 O 0.0 **** 0.0
362 H 21.785542 36.621452 30.933541 H 0.0 **** 0.0
363 H 20.952126 36.083948 29.789688 H 0.0 **** 0.0
364 M 21.522612 35.952035 30.437846 M 0.0 **** 0.0
365 O 25.155258 4.01985 44.003017 O 0.0 **** 0.0
366 H 24.925113 3.160146 44.355394 H 0.0 **** 0.0
367 H 24.781646 4.025864 43.121764 H 0.0 **** 0.0
368 M 25.07797 3.910567 43.935314 M 0.0 **** 0.0
369 O 36.460787 3.191567 24.483922 O 0.0 **** 0.0
370 H 36.818697 2.640676 23.787756 H 0.0 **** 0.0
371 H 37.076565 3.091257 25.209858 H 0.0 **** 0.0
372 M 36.585431 3.108205 24.487733 M 0.0 **** 0.0
373 O 3.575313 30.284593 7.157054 O 0.0 **** 0.0
374 H 3.504005 30.069324 8.087001 H 0.0 **** 0.0
375 H 2.807068 29.877332 6.756847 H 0.0 **** 0.0
376 M 3.46784 30.204902 7.224867 M 0.0 **** 0.0
377 O 8.886469 43.463028 1.592364 O 0.0 **** 0.0
378 H 8.804126 42.511837 1.660805 H 0.0 **** 0.0
379 H 8.477693 43.679625 0.75438 H 0.0 **** 0.0
380 M 8.823599 43.368991 1.493853 M 0.0 **** 0.0
381 O 6.731642 21.185535 8.458541 O 0.0 **** 0.0
382 H 6.354201 21.66151 9.198281 H 0.0 **** 0.0
383 H 7.608562 20.940003 8.753422 H 0.0 **** 0.0
384 M 6.795582 21.215034 8.590986 M 0.0 **** 0.0
385 O 44.005634 25.363347 6.46893 O 0.0 **** 0.0
386 H 43.755882 26.052987 5.85391 H 0.0 **** 0.0
387 H 43.193704 25.143644 6.925799 H 0.0 **** 0.0
388 M 43.869726 25.423505 6.448685 M 0.0 **** 0.0
389 O 41.208386 45.969677 46.072037 O 0.0 **** 0.0
390 H 40.924253 45.057739 46.009864 H 0.0 **** 0.0
391 H 40.395478 46.47505 46.069187 H 0.0 **** 0.0
392 M 41.067951 45.917632 46.063713 M 0.0 **** 0.0
393 O 1.684388 4.991089 0.046558 O 0.0 **** 0.0
394 H 1.122146 4.218387 -0.008619 H 0.0 **** 0.0
395 H 1.080071 5.731694 -0.00378 H 0.0 **** 0.0
396 M 1.535054 4.98698 0.03305 M 0.0 **** 0.0
397 O 4.740933 9.951049 23.798712 O 0.0 **** 0.0
398 H 4.140634 9.95343 23.053149 H 0.0 **** 0.0
399 H 5.200585 10.788565 23.739405 H 0.0 **** 0.0
400 M 4.722929 10.058567 23.695678 M 0.0 **** 0.0
401 O 30.712734 39.349376 2.148997 O 0.0 **** 0.0
402 H 31.389511 39.811123 2.643962 H 0.0 **** 0.0
403 H 30.157186 38.949137 2.81788 H 0.0 **** 0.0
404 M 30.728253 39.35725 2.297984 M 0.0 **** 0.0
405 O 23.856462 13.540632 41.088873 O 0.0 **** 0.0
406 H 23.091473 14.094441 41.244807 H 0.0 **** 0.0
407 H 23.688676 12.749775 41.601339 H 0.0 **** 0.0
408 M 23.737055 13.510287 41.174437 M 0.0 **** 0.0
409 O 11.558094 47.047635 45.701288 O 0.0 **** 0.0
410 H 10.657739 46.891267 45.986135 H 0.0 **** 0.0
411 H 11.650213 48.000359 45.709003 H 0.0 **** 0.0
412 M 11.45463 47.149578 45.73874 M 0.0 **** 0.0
413 O 31.115011 48.011825 45.971815 O 0.0 **** 0.0
414 H 30.563601 47.290784 45.668047 H 0.0 **** 0.0
415 H 31.496377 47.693989 46.790209 H 0.0 **** 0.0
416 M 31.093243 47.878836 46.037694 M 0.0 **** 0.0
417 O 27.847465 43.403099 37.677447 O 0.0 **** 0.0
418 H 27.690439 43.841001 36.840899 H 0.0 **** 0.0
419 H 27.555874 44.033031 38.336529 H 0.0 **** 0.0
420 M 27.790036 43.539795 37.654729 M 0.0 **** 0.0
421 O 46.489867 19.396165 34.883118 O 0.0 **** 0.0
422 H 45.804818 20.060824 34.811252 H 0.0 **** 0.0
423 H 46.049054 18.573317 34.671382 H 0.0 **** 0.0
424 M 46.345743 19.375915 34.846814 M 0.0 **** 0.0
425 O 2.565718 28.737861 0.85198 O 0.0 **** 0.0
426 H 2.153468 28.583882 0.001939 H 0.0 **** 0.0
427 H 1.833374 28.813658 1.463663 H 0.0 **** 0.0
428 M 2.419196 28.727853 0.821467 M 0.0 **** 0.0
429 O 13.873198 9.957755 47.653352 O 0.0 **** 0.0
430 H 14.564832 9.300233 47.578949 H 0.0 **** 0.0
431 H 13.120528 9.476514 47.997042 H 0.0 **** 0.0
432 M 13.865385 9.811979 47.687824 M 0.0 **** 0.0
433 O 14.180891 8.050608 18.050748 O 0.0 **** 0.0
434 H 14.596996 7.274772 17.675028 H 0.0 **** 0.0
435 H 14.361774 8.748589 17.421199 H 0.0 **** 0.0
436 M 14.257313 8.040641 17.922061 M 0.0 **** 0.0
437 O 44.948913 16.919058 37.695382 O 0.0 **** 0.0
438 H 45.661383 16.840558 37.060991 H 0.0 **** 0.0
439 H 45.287837 17.513679 38.36455 H 0.0 **** 0.0
440 M 45.083504 16.985128 37.699834 M 0.0 **** 0.0
441 O 23.333886 29.600063 45.393392 O 0.0 **** 0.0
442 H 22.742533 30.083497 44.816484 H 0.0 **** 0.0
443 H 22.848615 28.808328 45.625549 H 0.0 **** 0.0
444 M 23.196064 29.560597 45.34926 M 0.0 **** 0.0
445 O 6.645127 29.926675 29.232691 O 0.0 **** 0.0
446 H 6.739213 30.225349 28.328163 H 0.0 **** 0.0
447 H 7.462947 29.465701 29.419509 H 0.0 **** 0.0
448 M 6.761862 29.905899 29.140815 M 0.0 **** 0.0
449 O 18.819287 24.108161 47.045121 O 0.0 **** 0.0
450 H 18.00121 23.649457 47.236354 H 0.0 **** 0.0
451 H 18.682065 24.993826 47.381271 H 0.0 **** 0.0
452 M 18.696996 24.162817 47.112633 M 0.0 **** 0.0
453 O 21.929474 20.798376 6.197065 O 0.0 **** 0.0
454 H 21.233499 20.156601 6.055737 H 0.0 **** 0.0
455 H 22.732928 20.338657 5.95345 H 0.0 **** 0.0
456 M 21.943232 20.657371 6.147787 M 0.0 **** 0.0
457 O 28.934667 21.131122 32.398791 O 0.0 **** 0.0
458 H 28.134163 20.62919 32.245536 H 0.0 **** 0.0
459 H 28.649789 21.885782 32.914118 H 0.0 **** 0.0
460 M 28.795724 21.163474 32.445141 M 0.0 **** 0.0
461 O 29.279984 34.809463 3.244896 O 0.0 **** 0.0
462 H 29.260702 33.85432 3.304551 H 0.0 **** 0.0
463 H 29.403376 35.10384 4.147307 H 0.0 **** 0.0
464 M 29.293311 34.724876 3.368052 M 0.0 **** 0.0
465 O 25.38452 9.138173 27.500152 O 0.0 **** 0.0
466 H 25.506514 10.045678 27.221259 H 0.0 **** 0.0
467 H 25.59949 8.618173 26.725804 H 0.0 **** 0.0
468 M 25.427656 9.187779 27.365324 M 0.0 **** 0.0
469 O 45.674427 16.414905 40.457004 O 0.0 **** 0.0
470 H 44.976596 17.061674 40.56165 H 0.0 **** 0.0
471 H 46.481245 16.929948 40.458824 H 0.0 **** 0.0
472 M 45.688379 16.563631 40.470633 M 0.0 **** 0.0
473 O 2.330975 20.176651 0.794902 O 0.0 **** 0.0
474 H 2.340249 19.240246 0.59669 H 0.0 **** 0.0
475 H 3.228544 20.374236 1.062406 H 0.0 **** 0.0
476 M 2.447062 20.082073 0.803772 M 0.0 **** 0.0
477 O 7.347072 14.333464 33.71632 O 0.0 **** 0.0
478 H 6.557357 14.459221 34.242404 H 0.0 **** 0.0
479 H 7.225484 14.907366 32.959959 H 0.0 **** 0.0
480 M 7.230414 14.423029 33.686841 M 0.0 **** 0.0
481 O 15.732385 47.423318 45.244759 O 0.0 **** 0.0
482 H 14.968344 47.999763 45.258201 H 0.0 **** 0.0
483 H 16.468551 47.995501 45.46131 H 0.0 **** 0.0
484 M 15.728817 47.570357 45.274201 M 0.0 **** 0.0
485 O 45.324681 1.017266 7.319353 O 0.0 **** 0.0
486 H 46.171188 0.747356 7.675446 H 0.0 **** 0.0
487 H 44.751145 0.265433 7.467789 H 0.0 **** 0.0
488 M 45.359624 0.88647 7.383939 M 0.0 **** 0.0
489 O 27.25523 42.662107 40.742279 O 0.0 **** 0.0
490 H 28.20559 42.59576 40.83524 H 0.0 **** 0.0
491 H 26.957837 41.755611 40.664498 H 0.0 **** 0.0
492 M 27.338818 42.537571 40.744222 M 0.0 **** 0.0
493 O 11.093016 35.323091 17.286898 O 0.0 **** 0.0
494 H 10.731311 36.161959 17.572728 H 0.0 **** 0.0
495 H 11.978394 35.532389 16.98936 H 0.0 **** 0.0
496 M 11.160053 35.457269 17.2854 M 0.0 **** 0.0
497 O 8.765267 18.151152 37.121967 O 0.0 **** 0.0
498 H 9.674556 17.902147 37.287549 H 0.0 **** 0.0
499 H 8.438962 18.447206 37.971735 H 0.0 **** 0.0
500 M 8.839896 18.157175 37.251944 M 0.0 **** 0.0
501 O 3.687796 35.679103 1.139646 O 0.0 **** 0.0
502 H 3.791625 35.304699 0.264849 H 0.0 **** 0.0
503 H 3.626626 36.622727 0.991119 H 0.0 **** 0.0
504 M 3.693257 35.75197 1.008647 M 0.0 **** 0.0
505 O 29.921219 13.793905 12.720007 O 0.0 **** 0.0
506 H 29.818277 14.001689 11.791321 H 0.0 **** 0.0
507 H 29.762792 12.851457 12.774063 H 0.0 **** 0.0
508 M 29.88776 13.699859 12.608044 M 0.0 **** 0.0
509 O 5.509556 23.483759 32.120067 O 0.0 **** 0.0
510 H 5.766029 24.397638 31.996472 H 0.0 **** 0.0
511 H 6.292401 22.981974 31.892921 H 0.0 **** 0.0
512 M 5.642602 23.536512 32.075168 M 0.0 **** 0.0
513 O 22.394231 3.490082 1.318891 O 0.0 **** 0.0
514 H 21.838167 3.68757 2.072563 H 0.0 **** 0.0
515 H 23.184916 3.10629 1.698033 H 0.0 **** 0.0
516 M 22.424265 3.466233 1.463906 M 0.0 **** 0.0
517 O 32.452021 4.895081 32.723141 O 0.0 **** 0.0
518 H 33.114912 5.551002 32.507336 H 0.0 **** 0.0
519 H 32.944061 4.079937 32.821452 H 0.0 **** 0.0
520 M 32.599867 4.874699 32.7081 M 0.0 **** 0.0
521 O 45.987701 8.723082 35.414425 O 0.0 **** 0.0
522 H 45.461746 9.209791 34.779827 H 0.0 **** 0.0
523 H 45.898131 7.807872 35.148725 H 0.0 **** 0.0
524 M 45.908906 8.668229 35.299176 M 0.0 **** 0.0
525 O 47.688816 26.38588 8.016198 O 0.0 **** 0.0
526 H 47.693543 26.896862 7.206813 H 0.0 **** 0.0
527 H 47.050635 25.690409 7.857222 H 0.0 **** 0.0
528 M 47.607726 26.362263 7.892235 M 0.0 **** 0.0
529 O 6.23407 37.672206 36.34566 O 0.0 **** 0.0
530 H 6.209947 38.039968 35.462259 H 0.0 **** 0.0
531 H 5.979837 36.756485 36.231424 H 0.0 **** 0.0
532 M 6.198437 37.60206 36.21795 M 0.0 **** 0.0
533 O 46.562769 31.674452 8.205829 O 0.0 **** 0.0
534 H 46.669859 32.625496 8.189217 H 0.0 **** 0.0
535 H 45.620189 31.53739 8.111042 H 0.0 **** 0.0
536 M 46.455816 31.778652 8.191569 M 0.0 **** 0.0
537 O 17.761929 45.231961 11.259446 O 0.0 **** 0.0
538 H 18.211371 44.389531 11.326849 H 0.0 **** 0.0
539 H 16.849659 45.003659 11.080922 H 0.0 **** 0.0
540 M 17.702681 45.094894 11.245221 M 0.0 **** 0.0
541 O 38.341385 32.539749 0.391615 O 0.0 **** 0.0
542 H 37.517151 32.829103 0.000285 H 0.0 **** 0.0
543 H 38.223438 32.680388 1.33105 H 0.0 **** 0.0
544 M 38.220774 32.594793 0.461779 M 0.0 **** 0.0
545 O 21.370485 31.446131 7.661322 O 0.0 **** 0.0
546 H 21.954902 32.132265 7.983664 H 0.0 **** 0.0
547 H 21.879315 30.994136 6.988254 H 0.0 **** 0.0
548 M 21.510434 31.476104 7.616425 M 0.0 **** 0.0
549 O 35.707221 32.845761 39.680442 O 0.0 **** 0.0
550 H 35.014751 32.185862 39.715762 H 0.0 **** 0.0
551 H 36.48441 32.396072 40.012081 H 0.0 **** 0.0
552 M 35.718066 32.70372 39.727417 M 0.0 **** 0.0
553 O 44.135101 6.084336 8.980879 O 0.0 **** 0.0
554 H 44.378979 5.158728 8.982711 H 0.0 **** 0.0
555 H 44.965524 6.551497 9.072449 H 0.0 **** 0.0
556 M 44.272625 6.025649 8.992835 M 0.0 **** 0.0
557 O 31.790564 2.220024 45.806536 O 0.0 **** 0.0
558 H 31.145193 2.0924 45.11124 H 0.0 **** 0.0
559 H 32.63009 2.013903 45.395514 H 0.0 **** 0.0
560 M 31.815419 2.177301 45.664913 M 0.0 **** 0.0
561 O 7.047048 20.862496 28.592647 O 0.0 **** 0.0
562 H 6.132218 21.132589 28.672424 H 0.0 **** 0.0
563 H 7.230017 20.391577 29.405657 H 0.0 **** 0.0
564 M 6.953361 20.836788 28.706935 M 0.0 **** 0.0
565 O 34.909166 9.953371 43.292103 O 0.0 **** 0.0
566 H 34.236008 9.274303 43.24791 H 0.0 **** 0.0
567 H 34.638321 10.512767 44.020079 H 0.0 **** 0.0
568 M 34.788322 9.938052 43.379636 M 0.0 **** 0.0
569 O 35.048689 25.119846 3.859669 O 0.0 **** 0.0
570 H 35.760714 25.678106 3.547267 H 0.0 **** 0.0
571 H 35.346037 24.807266 4.714132 H 0.0 **** 0.0
572 M 35.177901 25.151296 3.92906 M 0.0 **** 0.0
573 O 43.225982 13.503814 43.807718 O 0.0 **** 0.0
574 H 43.926415 12.917967 43.520654 H 0.0 **** 0.0
575 H 42.431773 12.972119 43.755187 H 0.0 **** 0.0
576 M 43.213978 13.360755 43.764246 M 0.0 **** 0.0
577 O 20.269532 5.22808 28.139624 O 0.0 **** 0.0
578 H 20.299621 6.181289 28.057668 H 0.0 **** 0.0
579 H 21.145653 4.937632 27.886089 H 0.0 **** 0.0
580 M 20.385538 5.312922 28.096677 M 0.0 **** 0.0
581 O 30.544251 7.948668 10.232551 O 0.0 **** 0.0
582 H 30.553426 7.349103 10.978652 H 0.0 **** 0.0
583 H 30.084597 8.724428 10.553711 H 0.0 **** 0.0
584 M 30.486584 7.971223 10.369174 M 0.0 **** 0.0
585 O 7.162791 43.070257 48.043378 O 0.0 **** 0.0
586 H 7.856339 42.41651 47.954865 H 0.0 **** 0.0
587 H 6.378923 42.635523 47.707543 H 0.0 **** 0.0
588 M 7.151229 42.930918 47.989056 M 0.0 **** 0.0
589 O 45.23721 23.963194 0.088854 O 0.0 **** 0.0
590 H 44.289068 24.060153 0.000229 H 0.0 **** 0.0
591 H 45.376115 23.018938 0.161763 H 0.0 **** 0.0
592 M 45.133617 23.854729 0.086842 M 0.0 **** 0.0
593 O 31.118521 7.07249 2.328189 O 0.0 **** 0.0
594 H 30.302103 7.13328 1.83221 H 0.0 **** 0.0
595 H 31.738891 6.669472 1.720779 H 0.0 **** 0.0
596 M 31.093424 7.02868 2.186941 M 0.0 **** 0.0
597 O 11.184752 34.386697 22.67093 O 0.0 **** 0.0
598 H 11.736177 34.230911 23.437671 H 0.0 **** 0.0
599 H 10.318222 34.573008 23.032373 H 0.0 **** 0.0
600 M 11.144415 34.390605 22.815352 M 0.0 **** 0.0
601 O 12.952024 27.899609 43.860615 O 0.0 **** 0.0
602 H 13.338893 27.931905 42.985676 H 0.0 **** 0.0
603 H 13.504704 28.475618 44.388806 H 0.0 **** 0.0
604 M 13.072298 27.97748 43.816227 M 0.0 **** 0.0
605 O 9.382784 26.08757 20.551816 O 0.0 **** 0.0
606 H 10.244213 25.805569 20.859458 H 0.0 **** 0.0
607 H 8.893744 26.280844 21.351636 H 0.0 **** 0.0
608 M 9.430454 26.076212 20.693585 M 0.0 **** 0.0
609 O 3.282908 17.207561 35.937833 O 0.0 **** 0.0
610 H 4.142714 17.580123 35.742489 H 0.0 **** 0.0
611 H 3.098544 17.486689 36.834676 H 0.0 **** 0.0
612 M 3.369373 17.290985 36.027634 M 0.0 **** 0.0
613 O 29.5863 4.939244 6.563466 O 0.0 **** 0.0
614 H 30.02822 4.121146 6.790736 H 0.0 **** 0.0
615 H 28.914137 4.681674 5.932527 H 0.0 **** 0.0
616 M 29.556826 4.801545 6.511791 M 0.0 **** 0.0
617 O 33.007392 37.680042 35.315355 O 0.0 **** 0.0
618 H 32.073362 37.564817 35.490111 H 0.0 **** 0.0
619 H 33.094361 38.60213 35.073656 H 0.0 **** 0.0
620 M 32.898958 37.783331 35.306785 M 0.0 **** 0.0
621 O 4.179299 24.711307 2.560471 O 0.0 **** 0.0
622 H 5.124654 24.81582 2.668222 H 0.0 **** 0.0
623 H 4.044661 24.708207 1.612794 H 0.0 **** 0.0
624 M 4.283081 24.724289 2.452949 M 0.0 **** 0.0
625 O 45.052226 42.968638 17.647545 O 0.0 **** 0.0
626 H 44.224166 43.448385 17.627859 H 0.0 **** 0.0
627 H 44.796498 42.046934 17.611572 H 0.0 **** 0.0
628 M 44.913488 42.912062 17.64042 M 0.0 **** 0.0
629 O 16.677088 24.408286 8.244381 O 0.0 **** 0.0
630 H 16.637898 24.363663 7.289027 H 0.0 **** 0.0
631 H 16.684528 25.345091 8.440773 H 0.0 **** 0.0
632 M 16.673023 24.522497 8.147224 M 0.0 **** 0.0
633 O 37.073554 8.107306 18.029127 O 0.0 **** 0.0
634 H 37.849055 8.573689 17.717175 H 0.0 **** 0.0
635 H 37.277297 7.182534 17.889436 H 0.0 **** 0.0
636 M 37.19891 8.048627 17.971311 M 0.0 **** 0.0
637 O 33.036287 8.561062 22.499633 O 0.0 **** 0.0
638 H 33.67615 8.125703 21.936369 H 0.0 **** 0.0
639 H 33.362825 8.419094 23.388141 H 0.0 **** 0.0
640 M 33.159998 8.487157 22.541268 M 0.0 **** 0.0
641 O 48.00452 17.665591 4.91624 O 0.0 **** 0.0
642 H 47.094589 17.369493 4.892175 H 0.0 **** 0.0
643 H 47.946583 18.620874 4.898731 H 0.0 **** 0.0
644 M 47.880621 17.749975 4.910918 M 0.0 **** 0.0
645 O 32.9455 31.496275 6.071377 O 0.0 **** 0.0
646 H 33.377484 32.003123 6.758927 H 0.0 **** 0.0
647 H 32.15119 31.991503 5.871255 H 0.0 **** 0.0
648 M 32.899118 31.624554 6.133774 M 0.0 **** 0.0
649 O 43.826703 34.994631 39.753903 O 0.0 **** 0.0
650 H 43.541645 34.616247 40.585646 H 0.0 **** 0.0
651 H 44.644441 35.44595 39.963291 H 0.0 **** 0.0
652 M 43.894893 35.003968 39.887181 M 0.0 **** 0.0
653 O 6.312844 17.261492 39.231416 O 0.0 **** 0.0
654 H 6.433769 16.409747 39.651103 H 0.0 **** 0.0
655 H 5.389473 17.276028 38.979614 H 0.0 **** 0.0
656 M 6.210121 17.154319 39.252908 M 0.0 **** 0.0
657 O -0.012438 5.943039 39.816668 O 0.0 **** 0.0
658 H 0.873286 5.583162 39.76965 H 0.0 **** 0.0
659 H 0.088301 6.861815 39.567809 H 0.0 **** 0.0
660 M 0.113841 6.014585 39.778792 M 0.0 **** 0.0
661 O 29.353417 16.523072 12.521032 O 0.0 **** 0.0
662 H 29.510986 16.991635 11.701367 H 0.0 **** 0.0
663 H 28.558463 16.92097 12.875931 H 0.0 **** 0.0
664 M 29.271824 16.63399 12.461536 M 0.0 **** 0.0
665 O 24.866836 24.745896 0.28843 O 0.0 **** 0.0
666 H 24.788745 23.961026 0.830748 H 0.0 **** 0.0
667 H 25.799634 24.802666 0.081322 H 0.0 **** 0.0
668 M 24.976249 24.65269 0.331341 M 0.0 **** 0.0
669 O 36.126916 5.859157 39.070805 O 0.0 **** 0.0
670 H 36.634203 5.066523 38.895823 H 0.0 **** 0.0
671 H 35.239154 5.643939 38.784819 H 0.0 **** 0.0
672 M 36.07821 5.73014 39.011796 M 0.0 **** 0.0
673 O 43.741108 19.678358 27.754022 O 0.0 **** 0.0
674 H 44.624052 19.362259 27.945648 H 0.0 **** 0.0
675 H 43.361439 19.865082 28.612634 H 0.0 **** 0.0
676 M 43.805534 19.661796 27.888466 M 0.0 **** 0.0
677 O 3.423475 46.177049 3.286666 O 0.0 **** 0.0
678 H 4.115831 46.837594 3.263188 H 0.0 **** 0.0
679 H 3.489912 45.790679 4.159898 H 0.0 **** 0.0
680 M 3.52061 46.212147 3.395445 M 0.0 **** 0.0
681 O 20.742849 3.872508 5.079598 O 0.0 **** 0.0
682 H 21.252668 3.600505 4.316494 H 0.0 **** 0.0
683 H 20.026178 3.239791 5.127359 H 0.0 **** 0.0
684 M 20.716369 3.756692 4.988025 M 0.0 **** 0.0
685 O 45.199901 46.990637 31.214412 O 0.0 **** 0.0
686 H 46.13946 47.13854 31.322034 H 0.0 **** 0.0
687 H 45.110152 46.038608 31.171805 H 0.0 **** 0.0
688 M 45.308687 46.887699 31.222735 M 0.0 **** 0.0
689 O 19.885386 39.808857 6.046499 O 0.0 **** 0.0
690 H 19.816349 39.391582 6.905187 H 0.0 **** 0.0
691 H 20.291287 39.145013 5.489019 H 0.0 **** 0.0
692 M 19.928509 39.67046 6.085058 M 0.0 **** 0.0
693 O 5.692278 3.585541 9.434088 O 0.0 **** 0.0
694 H 6.543204 4.021689 9.390182 H 0.0 **** 0.0
695 H 5.541184 3.264147 8.545209 H 0.0 **** 0.0
696 M 5.781865 3.600231 9.31468 M 0.0 **** 0.0
697 O 4.250508 27.227839 35.205547 O 0.0 **** 0.0
698 H 4.713587 26.409896 35.024563 H 0.0 **** 0.0
699 H 3.656509 27.33672 34.462891 H 0.0 **** 0.0
700 M 4.233749 27.13707 35.08731 M 0.0 **** 0.0
701 O 0.331358 34.298604 33.423557 O 0.0 **** 0.0
702 H -0.002937 34.860505 34.122659 H 0.0 **** 0.0
703 H 0.021122 33.422126 33.651086 H 0.0 **** 0.0
704 M 0.24885 34.258334 33.542177 M 0.0 **** 0.0
705 O 8.997759 22.874502 9.500986 O 0.0 **** 0.0
706 H 9.370253 23.325116 10.258893 H 0.0 **** 0.0
707 H 8.930223 23.552058 8.828241 H 0.0 **** 0.0
708 M 9.036797 23.018922 9.511888 M 0.0 **** 0.0
709 O 15.948029 5.091286 22.421065 O 0.0 **** 0.0
710 H 16.640036 5.737447 22.561887 H 0.0 **** 0.0
711 H 15.622479 4.893066 23.299105 H 0.0 **** 0.0
712 M 15.99494 5.148628 22.551492 M 0.0 **** 0.0
713 O 15.508302 15.764995 29.979143 O 0.0 **** 0.0
714 H 14.656991 16.194501 29.895339 H 0.0 **** 0.0
715 H 16.142448 16.481404 29.950082 H 0.0 **** 0.0
716 M 15.480502 15.911686 29.964695 M 0.0 **** 0.0
717 O 30.462054 23.117526 8.760464 O 0.0 **** 0.0
718 H 29.813389 23.818029 8.691486 H 0.0 **** 0.0
719 H 31.190537 23.511429 9.240445 H 0.0 **** 0.0
720 M 30.472272 23.257624 8.813077 M 0.0 **** 0.0
721 O 44.65526 17.882214 23.435718 O 0.0 **** 0.0
722 H 44.834102 18.821804 23.398086 H 0.0 **** 0.0
723 H 43.700113 17.819622 23.438012 H 0.0 **** 0.0
724 M 44.555884 17.994481 23.431194 M 0.0 **** 0.0
725 O 5.982924 29.768203 17.419372 O 0.0 **** 0.0
726 H 6.745824 30.069601 16.926045 H 0.0 **** 0.0
727 H 5.72778 28.951015 16.991197 H 0.0 **** 0.0
728 M 6.047923 29.702175 17.301408 M 0.0 **** 0.0
729 O 38.805953 18.754627 31.855984 O 0.0 **** 0.0
730 H 38.695282 19.418879 32.536241 H 0.0 **** 0.0
731 H 38.433532 19.152579 31.069113 H 0.0 **** 0.0
732 M 38.744111 18.890603 31.842336 M 0.0 **** 0.0
733 O 21.756852 32.059565 19.459734 O 0.0 **** 0.0
734 H 22.201573 32.891887 19.620021 H 0.0 **** 0.0
735 H 21.819863 31.932195 18.513142 H 0.0 **** 0.0
736 M 21.821848 32.149808 19.359077 M 0.0 **** 0.0
737 O 10.919558 8.552918 11.244776 O 0.0 **** 0.0
738 H 11.825345 8.606271 11.549623 H 0.0 **** 0.0
739 H 10.51398 9.362703 11.554586 H 0.0 **** 0.0
740 M 10.983591 8.66341 11.32346 M 0.0 **** 0.0
741 O 25.668614 38.973361 12.342506 O 0.0 **** 0.0
742 H 26.606754 39.125241 12.456761 H 0.0 **** 0.0
743 H 25.355395 38.738486 13.215979 H 0.0 **** 0.0
744 M 25.748612 38.962736 12.468948 M 0.0 **** 0.0
745 O 39.322514 5.828953 16.428043 O 0.0 **** 0.0
746 H 39.25332 6.783341 16.452218 H 0.0 **** 0.0
747 H 40.262098 5.658018 16.363295 H 0.0 **** 0.0
748 M 39.433935 5.929245 16.422849 M 0.0 **** 0.0
749 O 46.789112 42.111322 47.646838 O 0.0 **** 0.0
750 H 47.220437 42.889514 47.999832 H 0.0 **** 0.0
751 H 47.467741 41.436322 47.654919 H 0.0 **** 0.0
752 M 46.9312 42.124532 47.69306 M 0.0 **** 0.0
753 O 21.948669 42.379009 2.597671 O 0.0 **** 0.0
754 H 22.468869 41.854999 1.988545 H 0.0 **** 0.0
755 H 21.332492 42.853945 2.040005 H 0.0 **** 0.0
756 M 21.936383 42.372727 2.448307 M 0.0 **** 0.0
757 O 33.844326 34.525511 32.424314 O 0.0 **** 0.0
758 H 34.646056 34.295694 31.954588 H 0.0 **** 0.0
759 H 33.177006 33.94497 32.058411 H 0.0 **** 0.0
760 M 33.861532 34.421775 32.317343 M 0.0 **** 0.0
761 O 22.342049 12.376711 28.923094 O 0.0 **** 0.0
762 H 21.466571 11.998349 29.004385 H 0.0 **** 0.0
763 H 22.342538 13.113896 29.533656 H 0.0 **** 0.0
764 M 22.230039 12.422645 29.01166 M 0.0 **** 0.0
765 O 25.003169 16.037073 14.495968 O 0.0 **** 0.0
766 H 24.401739 16.260988 13.785775 H 0.0 **** 0.0
767 H 24.652013 16.493329 15.260656 H 0.0 **** 0.0
768 M 24.881226 16.124144 14.502944 M 0.0 **** 0.0
769 O 24.3076 31.711446 9.820611 O 0.0 **** 0.0
770 H 25.162432 31.484297 10.186525 H 0.0 **** 0.0
771 H 24.396627 32.626031 9.552586 H 0.0 **** 0.0
772 M 24.428426 31.799447 9.833142 M 0.0 **** 0.0
773 O 33.265649 46.682379 37.410507 O 0.0 **** 0.0
774 H 33.62928 45.93 37.877334 H 0.0 **** 0.0
775 H 34.025633 47.11032 37.016147 H 0.0 **** 0.0
776 M 33.409486 46.640847 37.419783 M 0.0 **** 0.0
777 O 34.575113 24.098431 40.296488 O 0.0 **** 0.0
778 H 33.748945 24.337918 40.716394 H 0.0 **** 0.0
779 H 34.32912 23.453692 39.633142 H 0.0 **** 0.0
780 M 34.437863 24.046553 40.265325 M 0.0 **** 0.0
781 O 7.385663 18.525051 9.382535 O 0.0 **** 0.0
782 H 7.725393 17.730175 8.97146 H 0.0 **** 0.0
783 H 6.634474 18.77196 8.843109 H 0.0 **** 0.0
784 M 7.332991 18.454904 9.260859 M 0.0 **** 0.0
785 O 36.659407 27.988481 27.08449 O 0.0 **** 0.0
786 H 36.991282 28.86779 27.265884 H 0.0 **** 0.0
787 H 35.979161 28.120214 26.42408 H 0.0 **** 0.0
788 M 36.614811 28.117907 27.02317 M 0.0 **** 0.0
789 O 38.381381 15.651221 12.124618 O 0.0 **** 0.0
790 H 39.309944 15.865899 12.035662 H 0.0 **** 0.0
791 H 38.342244 14.701997 12.007694 H 0.0 **** 0.0
792 M 38.495239 15.55719 12.098263 M 0.0 **** 0.0
793 O 18.365509 31.334819 26.523596 O 0.0 **** 0.0
794 H 17.845855 30.61242 26.170992 H 0.0 **** 0.0
795 H 18.062749 31.429808 27.42667 H 0.0 **** 0.0
796 M 18.26023 31.254502 26.594063 M 0.0 **** 0.0
797 O 31.192136 1.666047 8.475283 O 0.0 **** 0.0
798 H 32.124062 1.569686 8.671388 H 0.0 **** 0.0
799 H 31.089933 2.589015 8.243092 H 0.0 **** 0.0
800 M 31.298351 1.771863 8.470663 M 0.0 **** 0.0
801 O 2.96075 37.0574 28.092923 O 0.0 **** 0.0
802 H 3.632946 37.663801 28.403825 H 0.0 **** 0.0
803 H 3.187483 36.219942 28.497256 H 0.0 **** 0.0
804 M 3.075824 37.027822 28.184482 M 0.0 **** 0.0
805 O 13.930934 1.070208 15.030965 O 0.0 **** 0.0
806 H 14.185069 0.184573 15.290377 H 0.0 **** 0.0
807 H 12.980519 1.089695 15.143042 H 0.0 **** 0.0
808 M 13.841801 0.959331 15.078521 M 0.0 **** 0.0
809 O 33.17089 2.057339 4.131807 O 0.0 **** 0.0
810 H 33.616841 2.903593 4.097009 H 0.0 **** 0.0
811 H 33.481443 1.590338 3.356116 H 0.0 **** 0.0
812 M 33.267732 2.105888 4.028054 M 0.0 **** 0.0
813 O 7.977942 36.693096 18.674469 O 0.0 **** 0.0
814 H 7.425993 36.096619 19.180231 H 0.0 **** 0.0
815 H 8.850206 36.300433 18.709095 H 0.0 **** 0.0
816 M 8.018946 36.566474 18.743645 M 0.0 **** 0.0
817 O 37.160925 18.50652 26.65932 O 0.0 **** 0.0
818 H 36.819398 19.395097 26.759416 H 0.0 **** 0.0
819 H 36.382219 17.961379 26.54677 H 0.0 **** 0.0
820 M 37.017521 18.550484 26.657725 M 0.0 **** 0.0
821 O 42.157501 8.223944 42.621145 O 0.0 **** 0.0
822 H 41.980765 7.426453 43.120145 H 0.0 **** 0.0
823 H 42.782673 7.95283 41.948921 H 0.0 **** 0.0
824 M 42.214907 8.087149 42.59897 M 0.0 **** 0.0
825 O 45.302805 18.83148 4.29978 O 0.0 **** 0.0
826 H 45.77192 19.116276 5.084032 H 0.0 **** 0.0
827 H 44.702706 18.154162 4.611791 H 0.0 **** 0.0
828 M 45.286038 18.781232 4.440115 M 0.0 **** 0.0
829 O 48.000878 42.306318 3.407347 O 0.0 **** 0.0
830 H 47.160753 42.157176 2.973556 H 0.0 **** 0.0
831 H 47.997467 41.703413 4.1508 H 0.0 **** 0.0
832 M 47.892895 42.210047 3.446987 M 0.0 **** 0.0
833 O 18.628474 4.562984 13.687124 O 0.0 **** 0.0
834 H 19.210103 4.60559 14.44615 H 0.0 **** 0.0
835 H 17.946344 5.208851 13.870927 H 0.0 **** 0.0
836 M 18.615608 4.651117 13.807818 M 0.0 **** 0.0
837 O 25.279661 1.449796 17.683381 O 0.0 **** 0.0
838 H 25.088691 0.513848 17.622072 H 0.0 **** 0.0
839 H 26.234711 1.497567 17.726132 H 0.0 **** 0.0
840 M 25.377473 1.336099 17.681006 M 0.0 **** 0.0
841 O 17.031117 4.336355 27.677171 O 0.0 **** 0.0
842 H 16.936488 5.282494 27.567191 H 0.0 **** 0.0
843 H 16.133809 4.013361 27.759285 H 0.0 **** 0.0
844 M 16.904136 4.416126 27.673603 M 0.0 **** 0.0
845 O 5.979933 46.683824 30.786227 O 0.0 **** 0.0
846 H 6.60158 45.972972 30.629784 H 0.0 **** 0.0
847 H 5.131699 46.321493 30.530407 H 0.0 **** 0.0
848 M 5.950927 46.546443 30.733452 M 0.0 **** 0.0
849 O 4.10796 14.847737 35.248545 O 0.0 **** 0.0
850 H 4.60708 14.36034 35.903947 H 0.0 **** 0.0
851 H 4.677685 15.578118 35.007329 H 0.0 **** 0.0
852 M 4.244786 14.878842 35.301566 M 0.0 **** 0.0
853 O 6.821212 24.42561 10.506389 O 0.0 **** 0.0
854 H 7.459737 24.096483 11.138995 H 0.0 **** 0.0
855 H 7.270755 25.145736 10.064171 H 0.0 **** 0.0
856 M 6.960498 24.475662 10.530761 M 0.0 **** 0.0
857 O 19.105342 45.1269 40.207887 O 0.0 **** 0.0
858 H 18.762785 44.365887 40.676654 H 0.0 **** 0.0
859 H 18.59938 45.86534 40.546911 H 0.0 **** 0.0
860 M 18.996721 45.12401 40.311294 M 0.0 **** 0.0
861 O 11.709553 42.316348 2.858687 O 0.0 **** 0.0
862 H 12.574515 41.953312 2.668228 H 0.0 **** 0.0
863 H 11.327223 41.706934 3.490088 H 0.0 **** 0.0
864 M 11.771336 42.191862 2.915133 M 0.0 **** 0.0
865 O 26.483632 33.646028 5.917253 O 0.0 **** 0.0
866 H 25.594149 33.897004 6.166371 H 0.0 **** 0.0
867 H 26.679735 32.8843 6.462728 H 0.0 **** 0.0
868 M 26.394871 33.580645 6.018971 M 0.0 **** 0.0
869 O 5.255469 19.812124 14.767249 O 0.0 **** 0.0
870 H 4.417872 19.575611 15.165646 H 0.0 **** 0.0
871 H 5.673499 20.385349 15.409816 H 0.0 **** 0.0
872 M 5.201759 19.855227 14.900505 M 0.0 **** 0.0
873 O 35.579462 6.696396 46.138326 O 0.0 **** 0.0
874 H 35.027751 6.111097 46.657237 H 0.0 **** 0.0
875 H 34.964064 7.299943 45.7221 H 0.0 **** 0.0
876 M 35.430058 6.698732 46.151471 M 0.0 **** 0.0
877 O 15.70299 1.075814 43.863187 O 0.0 **** 0.0
878 H 16.409077 0.502016 44.160551 H 0.0 **** 0.0
879 H 16.151337 1.838419 43.497611 H 0.0 **** 0.0
880 M 15.850772 1.099983 43.854455 M 0.0 **** 0.0
881 O 13.827404 21.195535 19.668495 O 0.0 **** 0.0
882 H 14.207895 20.318514 19.716351 H 0.0 **** 0.0
883 H 12.953305 21.098864 20.046429 H 0.0 **** 0.0
884 M 13.764216 21.07089 19.723002 M 0.0 **** 0.0
885 O 41.527359 20.179433 43.344168 O 0.0 **** 0.0
886 H 40.689013 20.635706 43.271924 H 0.0 **** 0.0
887 H 42.076549 20.767183 43.862983 H 0.0 **** 0.0
888 M 41.490343 20.313081 43.401334 M 0.0 **** 0.0
889 O 45.815858 11.138162 31.347134 O 0.0 **** 0.0
890 H 45.538792 12.051977 31.413513 H 0.0 **** 0.0
891 H 45.313291 10.685216 32.024257 H 0.0 **** 0.0
892 M 45.716055 11.197159 31.442312 M 0.0 **** 0.0
893 O 6.097417 38.181799 10.445094 O 0.0 **** 0.0
894 H 6.834121 37.605841 10.649469 H 0.0 **** 0.0
895 H 5.59782 37.706135 9.781486 H 0.0 **** 0.0
896 M 6.127769 38.047178 10.386306 M 0.0 **** 0.0
897 O 18.381667 43.996102 5.785772 O 0.0 **** 0.0
898 H 18.460734 43.886311 6.73336 H 0.0 **** 0.0
899 H 18.622003 43.142927 5.424442 H 0.0 **** 0.0
900 M 18.422555 43.87283 5.86082 M 0.0 **** 0.0
901 O 31.780135 33.205792 7.684941 O 0.0 **** 0.0
902 H 32.528252 33.798406 7.75815 H 0.0 **** 0.0
903 H 31.07426 33.751985 7.339049 H 0.0 **** 0.0
904 M 31.785543 33.351574 7.650034 M 0.0 **** 0.0
905 O 15.136602 42.922386 27.05442 O 0.0 **** 0.0
906 H 14.265342 43.063923 27.424693 H 0.0 **** 0.0
907 H 15.401794 42.064488 27.385952 H 0.0 **** 0.0
908 M 15.059018 42.830683 27.144259 M 0.0 **** 0.0
909 O 10.758377 21.01515 19.611535 O 0.0 **** 0.0
910 H 9.978173 21.559162 19.719063 H 0.0 **** 0.0
911 H 10.546519 20.433323 18.881588 H 0.0 **** 0.0
912 M 10.63138 21.010309 19.531858 M 0.0 **** 0.0
913 O 39.235856 45.127174 10.987068 O 0.0 **** 0.0
914 H 38.338093 44.860933 10.78866 H 0.0 **** 0.0
915 H 39.711412 44.303883 11.097825 H 0.0 **** 0.0
916 M 39.181809 44.9877 10.975848 M 0.0 **** 0.0
917 O 41.58943 11.30747 42.419802 O 0.0 **** 0.0
918 H 40.720948 10.9903 42.667535 H 0.0 **** 0.0
919 H 42.190067 10.630428 42.731376 H 0.0 **** 0.0
920 M 41.555143 11.180198 42.491401 M 0.0 **** 0.0
921 O 44.014386 9.827171 19.945237 O 0.0 **** 0.0
922 H 44.218329 10.732629 19.711182 H 0.0 **** 0.0
923 H 43.09744 9.715172 19.694448 H 0.0 **** 0.0
924 M 43.923112 9.928744 19.883171 M 0.0 **** 0.0
925 O 33.024989 26.947483 31.50697 O 0.0 **** 0.0
926 H 32.526812 26.131623 31.457767 H 0.0 **** 0.0
927 H 33.940832 26.669299 31.515608 H 0.0 **** 0.0
928 M 33.078455 26.807431 31.501777 M 0.0 **** 0.0
929 O 31.013167 41.477041 14.814834 O 0.0 **** 0.0
930 H 30.382343 41.7016 14.130829 H 0.0 **** 0.0
931 H 31.861425 41.486389 14.371439 H 0.0 **** 0.0
932 M 31.041002 41.506984 14.670513 M 0.0 **** 0.0
933 O 13.066528 43.780229 3.7866 O 0.0 **** 0.0
934 H 12.983543 44.123664 2.896996 H 0.0 **** 0.0
935 H 13.873013 44.172587 4.121064 H 0.0 **** 0.0
936 M 13.159145 43.87442 3.715535 M 0.0 **** 0.0
937 O 33.277994 13.314855 40.755463 O 0.0 **** 0.0
938 H 32.494629 12.766846 40.707988 H 0.0 **** 0.0
939 H 33.558235 13.254327 41.668716 H 0.0 **** 0.0
940 M 33.213588 13.236955 40.866293 M 0.0 **** 0.0
941 O 6.61094 3.243198 33.21877 O 0.0 **** 0.0
942 H 6.687385 3.316228 32.267428 H 0.0 **** 0.0
943 H 7.301536 2.629284 33.468603 H 0.0 **** 0.0
944 M 6.709131 3.173958 33.128968 M 0.0 **** 0.0
945 O 1.010131 27.721166 20.432199 O 0.0 **** 0.0
946 H 1.071635 28.629667 20.13712 H 0.0 **** 0.0
947 H 1.905649 27.388383 20.372767 H 0.0 **** 0.0
948 M 1.132642 27.794865 20.386817 M 0.0 **** 0.0
949 O 18.341612 18.253046 47.454974 O 0.0 **** 0.0
950 H 19.110596 18.413935 48.001789 H 0.0 **** 0.0
951 H 18.699586 18.056786 46.5892 H 0.0 **** 0.0
952 M 18.485877 18.248518 47.414143 M 0.0 **** 0.0
953 O 42.152517 37.010527 30.364952 O 0.0 **** 0.0
954 H 42.193228 37.956807 30.503244 H 0.0 **** 0.0
955 H 41.617389 36.90576 29.578256 H 0.0 **** 0.0
956 M 42.089226 37.118251 30.281948 M 0.0 **** 0.0
957 O 30.18486 39.804701 37.898879 O 0.0 **** 0.0
958 H 30.599565 39.095235 38.389701 H 0.0 **** 0.0
959 H 29.262959 39.76573 38.153453 H 0.0 **** 0.0
960 M 30.119932 39.708892 37.994299 M 0.0 **** 0.0
961 O 41.179107 23.204614 37.250469 O 0.0 **** 0.0
962 H 41.280861 22.297695 36.961727 H 0.0 **** 0.0
963 H 40.307617 23.234443 37.64524 H 0.0 **** 0.0
964 M 41.080571 23.092335 37.264042 M 0.0 **** 0.0
965 O 18.253294 12.547164 26.572407 O 0.0 **** 0.0
966 H 17.796739 12.033507 27.238698 H 0.0 **** 0.0
967 H 17.562379 13.051876 26.143301 H 0.0 **** 0.0
968 M 18.106403 12.546019 26.60277 M 0.0 **** 0.0
969 O 13.506741 14.751996 39.981082 O 0.0 **** 0.0
970 H 13.99092 14.895191 39.167882 H 0.0 **** 0.0
971 H 12.598052 14.95397 39.758101 H 0.0 **** 0.0
972 M 13.452398 14.796182 39.848438 M 0.0 **** 0.0
973 O 0.699393 34.868792 12.88543 O 0.0 **** 0.0
974 H 0.544843 35.252848 12.022386 H 0.0 **** 0.0
975 H -0.027253 35.184864 13.422378 H 0.0 **** 0.0
976 M 0.586589 34.958417 12.843685 M 0.0 **** 0.0
977 O 33.443371 37.428244 37.979832 O 0.0 **** 0.0
978 H 32.664886 37.905933 38.266193 H 0.0 **** 0.0
979 H 33.117225 36.804984 37.330675 H 0.0 **** 0.0
980 M 33.301964 37.409609 37.933389 M 0.0 **** 0.0
981 O 24.647913 20.995238 36.458747 O 0.0 **** 0.0
982 H 24.726647 21.926233 36.666783 H 0.0 **** 0.0
983 H 23.737107 20.886664 36.185119 H 0.0 **** 0.0
984 M 24.541397 21.100519 36.450351 M 0.0 **** 0.0
985 O 23.171099 37.191761 23.364934 O 0.0 **** 0.0
986 H 23.534402 37.313943 24.242038 H 0.0 **** 0.0
987 H 23.030829 38.080163 23.037374 H 0.0 **** 0.0
988 M 23.19965 37.321129 23.435283 M 0.0 **** 0.0
989 O 12.970097 9.54496 23.985114 O 0.0 **** 0.0
990 H 13.097285 9.702066 23.049502 H 0.0 **** 0.0
991 H 13.778668 9.855337 24.392677 H 0.0 **** 0.0
992 M 13.089886 9.604804 23.917517 M 0.0 **** 0.0
993 O 32.003491 30.167151 4.279443 O 0.0 **** 0.0
994 H 31.339796 30.773779 3.951206 H 0.0 **** 0.0
995 H 32.698418 30.19287 3.621687 H 0.0 **** 0.0
996 M 32.007489 30.248099 4.153224 M 0.0 **** 0.0
997 O 3.480653 41.15564 41.113203 O 0.0 **** 0.0
998 H 3.316008 42.081744 41.290553 H 0.0 **** 0.0
999 H 2.632454 40.731751 41.243993 H 0.0 **** 0.0
1000 M 3.350996 41.21993 41.152649 M 0.0 **** 0.0
1001 O 22.907222 2.009372 26.981637 O 0.0 **** 0.0
1002 H 22.271679 2.536692 26.497645 H 0.0 **** 0.0
1003 H 23.627308 2.612051 27.167334 H 0.0 **** 0.0
1004 M 22.918044 2.154026 26.943451 M 0.0 **** 0.0
1005 O 23.652442 33.019815 17.065897 O 0.0 **** 0.0
1006 H 22.73207 33.280784 17.033667 H 0.0 **** 0.0
1007 H 24.021451 33.530004 17.786847 H 0.0 **** 0.0
1008 M 23.581861 33.118533 17.154061 M 0.0 **** 0.0
1009 O 14.886176 3.999434 11.790334 O 0.0 **** 0.0
1010 H 14.445791 4.480212 11.089519 H 0.0 **** 0.0
1011 H 15.348758 3.291562 11.341821 H 0.0 **** 0.0
1012 M 14.889018 3.970363 11.643206 M 0.0 **** 0.0
1013 O 25.078807 25.407844 2.977245 O 0.0 **** 0.0
1014 H 24.261366 25.862504 3.180477 H 0.0 **** 0.0
1015 H 25.377904 25.805792 2.159683 H 0.0 **** 0.0
1016 M 25.012452 25.516988 2.898603 M 0.0 **** 0.0
1017 O 26.603485 36.548026 11.682897 O 0.0 **** 0.0
1018 H 26.314633 37.264654 11.117886 H 0.0 **** 0.0
1019 H 27.08202 36.978791 12.391186 H 0.0 **** 0.0
1020 M 26.627766 36.694906 11.701238 M 0.0 **** 0.0
1021 O 10.996194 22.955986 8.03951 O 0.0 **** 0.0
1022 H 10.824911 23.764197 7.556099 H 0.0 **** 0.0
1023 H 10.392101 22.317274 7.660898 H 0.0 **** 0.0
1024 M 10.896936 22.977684 7.92916 M 0.0 **** 0.0
1025 O 21.402012 42.496812 28.495596 O 0.0 **** 0.0
1026 H 21.225622 41.778075 29.102664 H 0.0 **** 0.0
1027 H 20.648909 43.08019 28.589058 H 0.0 **** 0.0
1028 M 21.283025 42.479485 28.585273 M 0.0 **** 0.0
1029 O 5.647255 47.318943 27.380767 O 0.0 **** 0.0
1030 H 5.248368 46.499631 27.087772 H 0.0 **** 0.0
1031 H 5.000929 47.991179 27.164923 H 0.0 **** 0.0
1032 M 5.513455 47.300115 27.31563 M 0.0 **** 0.0
1033 O 18.089806 23.486472 36.21805 O 0.0 **** 0.0
1034 H 18.798369 23.703734 35.612274 H 0.0 **** 0.0
1035 H 18.283615 23.994155 37.006037 H 0.0 **** 0.0
1036 M 18.205321 23.579274 36.241375 M 0.0 **** 0.0
1037 O 23.850184 0.674487 24.716971 O 0.0 **** 0.0
1038 H 24.528203 0.000383 24.671123 H 0.0 **** 0.0
1039 H 23.028639 0.185658 24.765317 H 0.0 **** 0.0
1040 M 23.831811 0.525617 24.717291 M 0.0 **** 0.0
1041 O 38.402428 29.938842 42.947178 O 0.0 **** 0.0
1042 H 38.236998 29.001515 42.84579 H 0.0 **** 0.0
1043 H 39.245313 29.98636 43.398305 H 0.0 **** 0.0
1044 M 38.489151 29.824935 42.991949 M 0.0 **** 0.0
1045 O 28.85137 3.170106 33.991615 O 0.0 **** 0.0
1046 H 29.579267 2.760803 33.523783 H 0.0 **** 0.0
1047 H 29.165776 3.26252 34.890969 H 0.0 **** 0.0
1048 M 28.984798 3.12954 34.046856 M 0.0 **** 0.0
1049 O 15.713089 28.216318 21.893473 O 0.0 **** 0.0
1050 H 15.24245 27.664866 22.518475 H 0.0 **** 0.0
1051 H 15.191441 29.017076 21.839638 H 0.0 **** 0.0
1052 M 15.586064 28.248232 21.96659 M 0.0 **** 0.0
1053 O 8.389214 36.098818 47.031465 O 0.0 **** 0.0
1054 H 8.958784 36.266089 46.280572 H 0.0 **** 0.0
1055 H 7.506673 36.280469 46.708428 H 0.0 **** 0.0
1056 M 8.34915 36.143485 46.893989 M 0.0 **** 0.0
1057 O 6.576888 18.328006 27.882702 O 0.0 **** 0.0
1058 H 5.980601 19.074225 27.820844 H 0.0 **** 0.0
1059 H 7.442346 18.721076 27.995429 H 0.0 **** 0.0
1060 M 6.611345 18.473849 27.889214 M 0.0 **** 0.0
1061 O 5.929004 0.568531 1.096635 O 0.0 **** 0.0
1062 H 5.184361 -0.003168 0.909832 H 0.0 **** 0.0
1063 H 6.574275 -0.005145 1.509855 H 0.0 **** 0.0
1064 M 5.916283 0.421909 1.125619 M 0.0 **** 0.0
1065 O 33.644637 40.48104 4.623363 O 0.0 **** 0.0
1066 H 34.561466 40.338789 4.858775 H 0.0 **** 0.0
1067 H 33.643172 40.502814 3.666413 H 0.0 **** 0.0
1068 M 33.761815 40.465617 4.530997 M 0.0 **** 0.0
1069 O 27.9035 36.121798 23.968747 O 0.0 **** 0.0
1070 H 28.820959 36.296911 23.75938 H 0.0 **** 0.0
1071 H 27.424405 36.852298 23.577508 H 0.0 **** 0.0
1072 M 27.959616 36.237728 23.891862 M 0.0 **** 0.0
1073 O 10.626905 18.594677 4.601484 O 0.0 **** 0.0
1074 H 10.349718 19.433317 4.232595 H 0.0 **** 0.0
1075 H 11.565439 18.550533 4.418631 H 0.0 **** 0.0
1076 M 10.711566 18.696382 4.530854 M 0.0 **** 0.0
1077 O 29.200643 27.828779 0.25529 O 0.0 **** 0.0
1078 H 29.563009 28.212974 1.053609 H 0.0 **** 0.0
1079 H 29.555492 26.940035 0.23418 H 0.0 **** 0.0
1080 M 29.292456 27.76419 0.354782 M 0.0 **** 0.0
1081 O 23.927448 14.061165 8.57865 O 0.0 **** 0.0
1082 H 23.550383 14.940963 8.576383 H 0.0 **** 0.0
1083 H 24.87368 14.205588 8.574556 H 0.0 **** 0.0
1084 M 24.000309 14.192278 8.577836 M 0.0 **** 0.0
1085 O 31.945226 38.081911 27.496362 O 0.0 **** 0.0
1086 H 31.02025 37.836475 27.516593 H 0.0 **** 0.0
1087 H 31.940559 39.038422 27.532335 H 0.0 **** 0.0
1088 M 31.82622 38.172937 27.503557 M 0.0 **** 0.0
1089 O 23.175464 34.063202 14.892668 O 0.0 **** 0.0
1090 H 22.765498 33.200097 14.836055 H 0.0 **** 0.0
1091 H 22.463748 34.650759 15.14657 H 0.0 **** 0.0
1092 M 23.031875 34.027928 14.917924 M 0.0 **** 0.0
1093 O 9.73934 33.257746 10.45508 O 0.0 **** 0.0
1094 H 9.928187 32.532666 11.050751 H 0.0 **** 0.0
1095 H 9.036792 32.930224 9.89349 H 0.0 **** 0.0
1096 M 9.67358 33.123 10.459443 M 0.0 **** 0.0
1097 O 16.771253 42.528954 7.057362 O 0.0 **** 0.0
1098 H 17.487271 41.899081 6.974849 H 0.0 **** 0.0
1099 H 16.031672 42.110672 6.61658 H 0.0 **** 0.0
1100 M 16.768237 42.394777 6.990374 M 0.0 **** 0.0
1101 O 44.281683 0.087925 43.837053 O 0.0 **** 0.0
1102 H 44.142614 0.305195 42.915271 H 0.0 **** 0.0
1103 H 44.584511 0.905003 44.233168 H 0.0 **** 0.0
1104 M 44.302646 0.220334 43.769761 M 0.0 **** 0.0
1105 O 30.908623 24.502665 26.277383 O 0.0 **** 0.0
1106 H 30.326656 23.814033 25.955934 H 0.0 **** 0.0
1107 H 31.761803 24.076653 26.360011 H 0.0 **** 0.0
1108 M 30.943342 24.359977 26.246811 M 0.0 **** 0.0
1109 O 18.971939 5.03164 43.805567 O 0.0 **** 0.0
1110 H 19.232262 5.919989 44.049076 H 0.0 **** 0.0
1111 H 19.59714 4.775725 43.127437 H 0.0 **** 0.0
1112 M 19.085297 5.112599 43.74993 M 0.0 **** 0.0
1113 O 29.402586 42.391427 30.16657 O 0.0 **** 0.0
1114 H 28.568752 42.290571 29.707464 H 0.0 **** 0.0
1115 H 29.891081 41.596063 29.954444 H 0.0 **** 0.0
1116 M 29.358379 42.2767 30.080644 M 0.0 **** 0.0
1117 O 7.572043 27.245208 37.630437 O 0.0 **** 0.0
1118 H 7.392717 26.434817 38.107235 H 0.0 **** 0.0
1119 H 6.822296 27.34993 37.044654 H 0.0 **** 0.0
1120 M 7.45311 27.154873 37.616485 M 0.0 **** 0.0
1121 O 43.981645 13.804609 1.698843 O 0.0 **** 0.0
1122 H 44.45328 13.103432 2.148443 H 0.0 **** 0.0
1123 H 44.355384 14.611193 2.053764 H 0.0 **** 0.0
1124 M 44.089863 13.818102 1.801832 M 0.0 **** 0.0
1125 O 37.554548 12.291883 14.715124 O 0.0 **** 0.0
1126 H 36.681473 12.09624 14.374989 H 0.0 **** 0.0
1127 H 38.138696 11.715139 14.222817 H 0.0 **** 0.0
1128 M 37.517562 12.193008 14.608561 M 0.0 **** 0.0
1129 O 1.995389 22.967602 8.398004 O 0.0 **** 0.0
1130 H 1.70965 22.634518 9.248673 H 0.0 **** 0.0
1131 H 1.298605 22.711632 7.793686 H 0.0 **** 0.0
1132 M 1.869614 22.892195 8.42954 M 0.0 **** 0.0
1133 O 38.702662 2.979366 5.237279 O 0.0 **** 0.0
1134 H 37.926667 2.586039 4.838088 H 0.0 **** 0.0
1135 H 39.411296 2.789266 4.62252 H 0.0 **** 0.0
1136 M 38.694039 2.90468 5.107481 M 0.0 **** 0.0
1137 O 19.913446 32.246196 29.836412 O 0.0 **** 0.0
1138 H 20.125053 33.179173 29.80472 H 0.0 **** 0.0
1139 H 18.980675 32.204377 29.625654 H 0.0 **** 0.0
1140 M 19.821128 32.360275 29.805376 M 0.0 **** 0.0
1141 O 9.946071 25.108631 27.791437 O 0.0 **** 0.0
1142 H 10.696727 24.989481 27.209588 H 0.0 **** 0.0
1143 H 10.303999 25.560784 28.555422 H 0.0 **** 0.0
1144 M 10.087984 25.15126 27.814752 M 0.0 **** 0.0
1145 O 47.563404 13.660412 3.153743 O 0.0 **** 0.0
1146 H 48.000502 13.304378 2.380171 H 0.0 **** 0.0
1147 H 47.999237 13.235548 3.892505 H 0.0 **** 0.0
1148 M 47.675151 13.560447 3.149287 M 0.0 **** 0.0
1149 O 41.887118 9.94837 26.456561 O 0.0 **** 0.0
1150 H 41.190665 10.357796 25.943188 H 0.0 **** 0.0
1151 H 41.55935 9.957349 27.355847 H 0.0 **** 0.0
1152 M 41.756005 10.001931 26.505963 M 0.0 **** 0.0
1153 O 37.899073 34.549836 18.878472 O 0.0 **** 0.0
1154 H 37.352917 33.766233 18.940981 H 0.0 **** 0.0
1155 H 37.941146 34.73889 17.941072 H 0.0 **** 0.0
1156 M 37.834544 34.473726 18.766475 M 0.0 **** 0.0
1157 O 29.746593 37.65249 29.402624 O 0.0 **** 0.0
1158 H 29.635245 36.83991 28.909123 H 0.0 **** 0.0
1159 H 30.663082 37.641994 29.678606 H 0.0 **** 0.0
1160 M 29.849661 37.547126 29.374779 M 0.0 **** 0.0
1161 O 15.975398 11.520766 24.036177 O 0.0 **** 0.0
1162 H 15.834179 10.575314 24.085231 H 0.0 **** 0.0
1163 H 15.095077 11.896174 24.054394 H 0.0 **** 0.0
1164 M 15.844628 11.447793 24.044789 M 0.0 **** 0.0
1165 O 19.702502 34.405304 19.310858 O 0.0 **** 0.0
1166 H 20.638631 34.351201 19.118597 H 0.0 **** 0.0
1167 H 19.356482 33.548211 19.06208 H 0.0 **** 0.0
1168 M 19.778044 34.288659 19.254399 M 0.0 **** 0.0
1169 O 20.546969 45.924268 10.01633 O 0.0 **** 0.0
1170 H 19.690043 46.004865 10.43515 H 0.0 **** 0.0
1171 H 20.502006 45.098227 9.534808 H 0.0 **** 0.0
1172 M 20.431516 45.828842 10.008303 M 0.0 **** 0.0
1173 O 31.260769 39.010111 33.631661 O 0.0 **** 0.0
1174 H 31.831838 39.774779 33.70509 H 0.0 **** 0.0
1175 H 30.637452 39.241331 32.943009 H 0.0 **** 0.0
1176 M 31.254081 39.137597 33.552905 M 0.0 **** 0.0
1177 O 28.553998 29.879353 4.523631 O 0.0 **** 0.0
1178 H 28.728146 30.794133 4.302092 H 0.0 **** 0.0
1179 H 28.754542 29.395961 3.722168 H 0.0 **** 0.0
1180 M 28.601963 29.934576 4.392674 M 0.0 **** 0.0
1181 O 31.84816 31.727575 41.673968 O 0.0 **** 0.0
1182 H 32.026235 32.600594 42.023762 H 0.0 **** 0.0
1183 H 31.1073 31.85314 41.081019 H 0.0 **** 0.0
1184 M 31.776117 31.855406 41.642841 M 0.0 **** 0.0
1185 O 7.339269 16.726326 46.932923 O 0.0 **** 0.0
1186 H 8.114107 16.235994 47.207568 H 0.0 **** 0.0
1187 H 6.983514 16.222597 46.200855 H 0.0 **** 0.0
1188 M 7.392917 16.599073 46.874367 M 0.0 **** 0.0
1189 O 3.781878 42.69154 9.614279 O 0.0 **** 0.0
1190 H 3.369919 41.827945 9.58743 H 0.0 **** 0.0
1191 H 4.698027 42.513893 9.827215 H 0.0 **** 0.0
1192 M 3.846421 42.558248 9.6381 M 0.0 **** 0.0
1193 O 8.088928 27.51338 0.0815 O 0.0 **** 0.0
1194 H 7.796072 28.420534 -0.005309 H 0.0 **** 0.0
1195 H 9.044411 27.566574 0.060227 H 0.0 **** 0.0
1196 M 8.173753 27.636317 0.067664 M 0.0 **** 0.0
1197 O 7.427364 37.004908 8.27974 O 0.0 **** 0.0
1198 H 7.206719 37.883974 7.971863 H 0.0 **** 0.0
1199 H 6.805378 36.430893 7.832673 H 0.0 **** 0.0
1200 M 7.319496 37.043958 8.183097 M 0.0 **** 0.0
1201 O 13.665479 9.028289 4.024114 O 0.0 **** 0.0
1202 H 13.282553 9.342159 4.84331 H 0.0 **** 0.0
1203 H 12.91356 8.86537 3.454637 H 0.0 **** 0.0
1204 M 13.520205 9.047613 4.056081 M 0.0 **** 0.0
1205 O 30.208053 34.552953 43.283991 O 0.0 **** 0.0
1206 H 30.642147 33.7011 43.330224 H 0.0 **** 0.0
1207 H 29.273609 34.34581 43.272377 H 0.0 **** 0.0
1208 M 30.144002 34.417388 43.288423 M 0.0 **** 0.0
1209 O 44.340505 17.400133 0.728959 O 0.0 **** 0.0
1210 H 44.95377 17.306903 -4.2e-05 H 0.0 **** 0.0
1211 H 43.966485 16.526211 0.841196 H 0.0 **** 0.0
1212 M 44.371131 17.276326 0.650006 M 0.0 **** 0.0
1213 O 3.558364 32.358426 18.101681 O 0.0 **** 0.0
1214 H 2.918629 31.868287 17.58522 H 0.0 **** 0.0
1215 H 3.273402 33.269755 18.03457 H 0.0 **** 0.0
1216 M 3.439991 32.412344 18.026977 M 0.0 **** 0.0
1217 O 17.861706 34.440324 12.199683 O 0.0 **** 0.0
1218 H 17.541374 33.542333 12.114659 H 0.0 **** 0.0
1219 H 18.443248 34.416738 12.959604 H 0.0 **** 0.0
1220 M 17.895144 34.322351 12.286078 M 0.0 **** 0.0
1221 O 47.797147 41.857535 11.803612 O 0.0 **** 0.0
1222 H 48.000024 41.999332 12.728254 H 0.0 **** 0.0
1223 H 46.842299 41.797444 11.773891 H 0.0 **** 0.0
1224 M 47.700886 41.867994 11.918173 M 0.0 **** 0.0
1225 O 29.730276 31.703484 47.277434 O 0.0 **** 0.0
1226 H 30.319402 31.919097 48.000393 H 0.0 **** 0.0
1227 H 30.309706 31.404191 46.576781 H 0.0 **** 0.0
1228 M 29.879866 31.692772 47.280289 M 0.0 **** 0.0
1229 O 37.58851 1.271119 27.485022 O 0.0 **** 0.0
1230 H 37.492037 0.884982 28.355551 H 0.0 **** 0.0
1231 H 38.156364 2.029674 27.620538 H 0.0 **** 0.0
1232 M 37.648853 1.318793 27.613808 M 0.0 **** 0.0
1233 O 40.856823 11.446982 39.059155 O 0.0 **** 0.0
1234 H 40.013878 11.899943 39.036852 H 0.0 **** 0.0
1235 H 40.629451 10.517246 39.070219 H 0.0 **** 0.0
1236 M 40.719809 11.385949 39.057716 M 0.0 **** 0.0
1237 O 25.802038 28.909696 20.077436 O 0.0 **** 0.0
1238 H 26.27124 29.182079 20.866034 H 0.0 **** 0.0
1239 H 25.020342 28.464787 20.404905 H 0.0 **** 0.0
1240 M 25.762035 28.887611 20.220307 M 0.0 **** 0.0
1241 O 9.3829 39.070687 22.220908 O 0.0 **** 0.0
1242 H 9.337551 38.179056 22.566112 H 0.0 **** 0.0
1243 H 9.040514 39.000731 21.329781 H 0.0 **** 0.0
1244 M 9.333265 38.947592 22.151023 M 0.0 **** 0.0
1245 O 11.899015 7.763397 16.066526 O 0.0 **** 0.0
1246 H 12.854797 7.726812 16.029493 H 0.0 **** 0.0
1247 H 11.686608 8.678602 15.883463 H 0.0 **** 0.0
1248 M 11.994176 7.875871 16.038351 M 0.0 **** 0.0
1249 O 17.720936 19.102442 8.26635 O 0.0 **** 0.0
1250 H 17.473006 20.013574 8.109507 H 0.0 **** 0.0
1251 H 18.582406 19.014522 7.858469 H 0.0 **** 0.0
1252 M 17.799477 19.207824 8.194058 M 0.0 **** 0.0
1253 O 39.518312 39.81986 20.42266 O 0.0 **** 0.0
1254 H 38.56689 39.924856 20.423638 H 0.0 **** 0.0
1255 H 39.856457 40.69774 20.245988 H 0.0 **** 0.0
1256 M 39.439805 39.945681 20.400169 M 0.0 **** 0.0
1257 O 29.433395 7.707489 26.922664 O 0.0 **** 0.0
1258 H 29.799878 7.239306 26.172516 H 0.0 **** 0.0
1259 H 29.154151 7.016733 27.523586 H 0.0 **** 0.0
1260 M 29.444562 7.55913 26.903561 M 0.0 **** 0.0
1261 O 29.18325 37.253918 42.099665 O 0.0 **** 0.0
1262 H 28.455137 36.688118 41.842858 H 0.0 **** 0.0
1263 H 28.904608 38.133753 41.845739 H 0.0 **** 0.0
1264 M 29.054372 37.294118 42.034285 M 0.0 **** 0.0
1265 O 46.347043 37.205169 11.034805 O 0.0 **** 0.0
1266 H 46.614635 36.496434 10.449725 H 0.0 **** 0.0
1267 H 45.552448 36.879942 11.457978 H 0.0 **** 0.0
1268 M 46.27958 37.072809 11.014079 M 0.0 **** 0.0
1269 O 7.076036 38.107613 15.841101 O 0.0 **** 0.0
1270 H 6.73007 38.861709 15.363739 H 0.0 **** 0.0
1271 H 6.346781 37.488405 15.872678 H 0.0 **** 0.0
1272 M 6.938395 38.12488 15.784035 M 0.0 **** 0.0
1273 O 43.136801 10.439565 40.440491 O 0.0 **** 0.0
1274 H 42.248661 10.086206 40.491217 H 0.0 **** 0.0
1275 H 43.019676 11.388955 40.474685 H 0.0 **** 0.0
1276 M 43.008114 10.515865 40.451362 M 0.0 **** 0.0
1277 O 31.064497 25.776319 7.496727 O 0.0 **** 0.0
1278 H 31.403368 26.12009 6.670158 H 0.0 **** 0.0
1279 H 31.347125 24.861896 7.510205 H 0.0 **** 0.0
1280 M 31.144057 25.703268 7.392641 M 0.0 **** 0.0
1281 O 42.524264 38.371242 41.067257 O 0.0 **** 0.0
1282 H 41.953504 38.374925 41.835663 H 0.0 **** 0.0
1283 H 42.402232 39.235133 40.673519 H 0.0 **** 0.0
1284 M 42.435578 38.482302 41.115219 M 0.0 **** 0.0
1285 O 24.609023 26.072957 41.697157 O 0.0 **** 0.0
1286 H 25.451875 26.322999 42.075719 H 0.0 **** 0.0
1287 H 24.041163 26.826815 41.856729 H 0.0 **** 0.0
1288 M 24.644226 26.201469 41.766045 M 0.0 **** 0.0
1289 O 28.167365 9.170111 25.717451 O 0.0 **** 0.0
1290 H 28.55 10.035235 25.863667 H 0.0 **** 0.0
1291 H 28.392686 8.958013 24.81165 H 0.0 **** 0.0
1292 M 28.245191 9.253706 25.620214 M 0.0 **** 0.0
1293 O 43.482279 4.604353 45.152583 O 0.0 **** 0.0
1294 H 43.799711 3.701322 45.153105 H 0.0 **** 0.0
1295 H 44.276876 5.138053 45.149812 H 0.0 **** 0.0
1296 M 43.624632 4.557074 45.152295 M 0.0 **** 0.0
1297 O 30.367705 19.308066 34.055881 O 0.0 **** 0.0
1298 H 31.171965 19.45528 34.553599 H 0.0 **** 0.0
1299 H 30.640292 19.356343 33.139587 H 0.0 **** 0.0
1300 M 30.505555 19.333091 34.002298 M 0.0 **** 0.0
1301 O 40.513498 22.150181 7.402139 O 0.0 **** 0.0
1302 H 39.927827 22.903441 7.325867 H 0.0 **** 0.0
1303 H 39.938283 21.421631 7.635742 H 0.0 **** 0.0
1304 M 40.36489 22.153344 7.422279 M 0.0 **** 0.0
1305 O 29.704894 45.009623 9.884009 O 0.0 **** 0.0
1306 H 29.80024 45.886837 10.255 H 0.0 **** 0.0
1307 H 30.593301 44.757799 9.631927 H 0.0 **** 0.0
1308 M 29.830827 45.089681 9.899231 M 0.0 **** 0.0
1309 O 36.649095 40.695008 28.274276 O 0.0 **** 0.0
1310 H 36.525845 41.638506 28.378429 H 0.0 **** 0.0
1311 H 35.763843 40.332344 28.306413 H 0.0 **** 0.0
1312 M 36.519994 40.769362 28.291723 M 0.0 **** 0.0
1313 O 14.66818 25.012652 5.930977 O 0.0 **** 0.0
1314 H 15.367097 24.518421 5.502632 H 0.0 **** 0.0
1315 H 15.0165 25.900621 6.01106 H 0.0 **** 0.0
1316 M 14.80224 25.063056 5.886395 M 0.0 **** 0.0
1317 O 42.923579 44.985433 45.110425 O 0.0 **** 0.0
1318 H 43.612275 45.611477 45.334021 H 0.0 **** 0.0
1319 H 43.342809 44.128669 45.190623 H 0.0 **** 0.0
1320 M 43.065407 44.955898 45.149315 M 0.0 **** 0.0
1321 O 25.128868 42.877667 39.215861 O 0.0 **** 0.0
1322 H 25.322163 43.570899 39.846967 H 0.0 **** 0.0
1323 H 25.509557 43.188075 38.394307 H 0.0 **** 0.0
1324 M 25.202345 43.006146 39.191482 M 0.0 **** 0.0
1325 O 32.575484 8.720114 1.482359 O 0.0 **** 0.0
1326 H 33.312485 8.298623 1.924404 H 0.0 **** 0.0
1327 H 32.782085 8.649007 0.550432 H 0.0 **** 0.0
1328 M 32.696277 8.657056 1.419648 M 0.0 **** 0.0
1329 O 44.346788 30.242208 41.640621 O 0.0 **** 0.0
1330 H 44.545239 31.176519 41.578104 H 0.0 **** 0.0
1331 H 43.466003 30.158972 41.275217 H 0.0 **** 0.0
1332 M 44.259441 30.351157 41.585841 M 0.0 **** 0.0
1333 O 7.975154 34.518564 44.140153 O 0.0 **** 0.0
1334 H 7.757776 35.011167 44.931556 H 0.0 **** 0.0
1335 H 8.778438 34.048262 44.363264 H 0.0 **** 0.0
1336 M 8.050157 34.521419 44.270024 M 0.0 **** 0.0
1337 O 45.059447 26.558029 39.526363 O 0.0 **** 0.0
1338 H 44.331757 25.945116 39.631396 H 0.0 **** 0.0
1339 H 44.640153 27.410201 39.4071 H 0.0 **** 0.0
1340 M 44.912619 26.588657 39.524541 M 0.0 **** 0.0
1341 O 24.058508 3.08635 23.76388 O 0.0 **** 0.0
1342 H 23.402491 3.76493 23.923247 H 0.0 **** 0.0
1343 H 24.708303 3.508063 23.201605 H 0.0 **** 0.0
1344 M 24.057712 3.227201 23.712303 M 0.0 **** 0.0
1345 O 24.828817 22.458636 27.491352 O 0.0 **** 0.0
1346 H 24.755185 22.081622 28.368089 H 0.0 **** 0.0
1347 H 24.00239 22.923317 27.359753 H 0.0 **** 0.0
1348 M 24.713598 22.469859 27.586739 M 0.0 **** 0.0
1349 O 13.160274 5.705839 31.428887 O 0.0 **** 0.0
1350 H 13.898367 6.31157 31.496241 H 0.0 **** 0.0
1351 H 12.948762 5.688113 30.495519 H 0.0 **** 0.0
1352 M 13.227683 5.781111 31.318027 M 0.0 **** 0.0
1353 O 37.950099 13.260768 39.473346 O 0.0 **** 0.0
1354 H 38.060397 13.343953 38.526169 H 0.0 **** 0.0
1355 H 38.789633 13.540564 39.838211 H 0.0 **** 0.0
1356 M 38.071689 13.307234 39.398803 M 0.0 **** 0.0
1357 O 47.784011 19.809307 23.445586 O 0.0 **** 0.0
1358 H 47.946051 20.722218 23.207751 H 0.0 **** 0.0
1359 H 46.894591 19.635296 23.137559 H 0.0 **** 0.0
1360 M 47.690897 19.903895 23.375709 M 0.0 **** 0.0
1361 O 38.187578 43.41978 32.002547 O 0.0 **** 0.0
1362 H 38.647061 42.754008 31.490831 H 0.0 **** 0.0
1363 H 37.345209 43.018827 32.216741 H 0.0 **** 0.0
1364 M 38.138564 43.283226 31.96446 M 0.0 **** 0.0
1365 O 35.255407 23.594161 42.560385 O 0.0 **** 0.0
1366 H 34.573076 23.438075 43.213294 H 0.0 **** 0.0
1367 H 35.190045 24.528637 42.363638 H 0.0 **** 0.0
1368 M 35.159693 23.693804 42.618779 M 0.0 **** 0.0
1369 O 37.062213 8.519349 7.209792 O 0.0 **** 0.0
1370 H 36.673712 8.726715 8.059671 H 0.0 **** 0.0
1371 H 36.405916 8.798505 6.571375 H 0.0 **** 0.0
1372 M 36.928466 8.58163 7.236862 M 0.0 **** 0.0
1373 O 21.666615 29.203292 37.422056 O 0.0 **** 0.0
1374 H 21.590047 29.516788 38.323214 H 0.0 **** 0.0
1375 H 20.773381 28.964613 37.174279 H 0.0 **** 0.0
1376 M 21.542468 29.21287 37.505697 M 0.0 **** 0.0
1377 O 47.778545 17.824557 1.960538 O 0.0 **** 0.0
1378 H 48.001563 18.485788 2.615721 H 0.0 **** 0.0
1379 H 47.897846 16.989195 2.412385 H 0.0 **** 0.0
1380 M 47.822366 17.802266 2.102252 M 0.0 **** 0.0
1381 O 37.123132 13.776709 41.443748 O 0.0 **** 0.0
1382 H 37.42409 13.784068 42.352373 H 0.0 **** 0.0
1383 H 36.708304 12.920919 41.335261 H 0.0 **** 0.0
1384 M 37.108555 13.668099 41.546176 M 0.0 **** 0.0
1385 O 7.949272 7.258591 36.696413 O 0.0 **** 0.0
1386 H 7.422264 7.983818 36.360948 H 0.0 **** 0.0
1387 H 8.853862 7.51864 36.522286 H 0.0 **** 0.0
1388 M 7.997607 7.384719 36.631179 M 0.0 **** 0.0
1389 O 27.956973 5.388249 29.574695 O 0.0 **** 0.0
1390 H 28.432863 4.56 29.636006 H 0.0 **** 0.0
1391 H 27.43838 5.42712 30.378299 H 0.0 **** 0.0
1392 M 27.951506 5.287199 29.685415 M 0.0 **** 0.0
1393 O 1.699812 3.616145 5.720171 O 0.0 **** 0.0
1394 H 1.872151 4.156792 4.949309 H 0.0 **** 0.0
1395 H 1.75444 4.224566 6.457103 H 0.0 **** 0.0
1396 M 1.728866 3.76324 5.715828 M 0.0 **** 0.0
1397 O 32.191739 17.574039 33.443373 O 0.0 **** 0.0
1398 H 32.296415 17.42522 34.38312 H 0.0 **** 0.0
1399 H 32.268871 16.703692 33.052507 H 0.0 **** 0.0
1400 M 32.215013 17.443573 33.513637 M 0.0 **** 0.0
1401 O 19.788378 38.561238 30.606725 O 0.0 **** 0.0
1402 H 19.252672 39.170047 30.098198 H 0.0 **** 0.0
1403 H 19.259178 37.765653 30.663466 H 0.0 **** 0.0
1404 M 19.652057 38.537329 30.54889 M 0.0 **** 0.0
1405 O 9.862268 31.09163 22.153524 O 0.0 **** 0.0
1406 H 9.494151 31.859103 22.591365 H 0.0 **** 0.0
1407 H 9.701474 30.369014 22.760319 H 0.0 **** 0.0
1408 M 9.79456 31.097372 22.28725 M 0.0 **** 0.0
1409 O 25.498922 7.222922 43.465784 O 0.0 **** 0.0
1410 H 26.285563 7.614319 43.845564 H 0.0 **** 0.0
1411 H 25.503518 6.319598 43.782347 H 0.0 **** 0.0
1412 M 25.60021 7.157389 43.554924 M 0.0 **** 0.0
1413 O 2.389836 30.969753 33.619214 O 0.0 **** 0.0
1414 H 3.299768 30.673095 33.634917 H 0.0 **** 0.0
1415 H 2.279158 31.358702 32.751632 H 0.0 **** 0.0
1416 M 2.49215 30.981567 33.510163 M 0.0 **** 0.0
1417 O 3.559691 30.146784 22.213002 O 0.0 **** 0.0
1418 H 4.515867 30.138863 22.169483 H 0.0 **** 0.0
1419 H 3.329135 31.074758 22.257011 H 0.0 **** 0.0
1420 M 3.652579 30.264562 22.213064 M 0.0 **** 0.0
1421 O 31.66537 27.222852 45.97238 O 0.0 **** 0.0
1422 H 31.142391 27.450309 45.203625 H 0.0 **** 0.0
1423 H 32.251751 27.969695 46.09326 H 0.0 **** 0.0
1424 M 31.673486 27.347575 45.889444 M 0.0 **** 0.0
1425 O 43.720249 4.258868 42.995937 O 0.0 **** 0.0
1426 H 43.891413 4.367773 42.060485 H 0.0 **** 0.0
1427 H 42.994173 3.636436 43.03619 H 0.0 **** 0.0
1428 M 43.649213 4.19313 42.88134 M 0.0 **** 0.0
1429 O 43.134696 46.355287 21.018632 O 0.0 **** 0.0
1430 H 42.580251 47.122399 21.161314 H 0.0 **** 0.0
1431 H 42.527785 45.668537 20.742476 H 0.0 **** 0.0
1432 M 42.986028 46.365575 21.001545 M 0.0 **** 0.0
1433 O 32.981194 20.75462 40.307117 O 0.0 **** 0.0
1434 H 32.135273 21.145664 40.088643 H 0.0 **** 0.0
1435 H 33.595406 21.488655 40.294223 H 0.0 **** 0.0
1436 M 32.951533 20.898644 40.277499 M 0.0 **** 0.0
1437 O 45.087391 43.75853 43.909055 O 0.0 **** 0.0
1438 H 45.250949 44.643787 44.234321 H 0.0 **** 0.0
1439 H 45.91677 43.298403 44.03806 H 0.0 **** 0.0
1440 M 45.214499 43.812952 43.967207 M 0.0 **** 0.0
1441 O 1.945077 37.168728 24.116926 O 0.0 **** 0.0
1442 H 1.830629 36.727075 23.275455 H 0.0 **** 0.0
1443 H 2.863185 37.439411 24.122979 H 0.0 **** 0.0
1444 M 2.047956 37.146842 24.009982 M 0.0 **** 0.0
1445 O 44.032379 28.751333 34.182673 O 0.0 **** 0.0
1446 H 44.101005 29.568279 34.676756 H 0.0 **** 0.0
1447 H 43.109463 28.697753 33.934515 H 0.0 **** 0.0
1448 M 43.923019 28.849053 34.214155 M 0.0 **** 0.0
1449 O 46.859713 11.353441 20.16812 O 0.0 **** 0.0
1450 H 46.959605 12.010776 19.479525 H 0.0 **** 0.0
1451 H 46.035123 11.579866 20.59825 H 0.0 **** 0.0
1452 M 46.766943 11.466574 20.135033 M 0.0 **** 0.0
1453 O 14.288914 30.719767 17.70352 O 0.0 **** 0.0
1454 H 13.38173 30.430182 17.60663 H 0.0 **** 0.0
1455 H 14.729113 30.397119 16.917167 H 0.0 **** 0.0
1456 M 14.229134 30.641394 17.590454 M 0.0 **** 0.0
1457 O 6.734761 5.301417 30.445925 O 0.0 **** 0.0
1458 H 6.183738 4.708362 29.935152 H 0.0 **** 0.0
1459 H 7.629461 5.01333 30.264961 H 0.0 **** 0.0
1460 M 6.778756 5.18862 30.357374 M 0.0 **** 0.0
1461 O 7.272195 14.549434 13.582464 O 0.0 **** 0.0
1462 H 7.568541 13.650646 13.438977 H 0.0 **** 0.0
1463 H 7.967741 14.951249 14.10303 H 0.0 **** 0.0
1464 M 7.399169 14.485815 13.630735 M 0.0 **** 0.0
1465 O 38.115762 6.603562 37.343916 O 0.0 **** 0.0
1466 H 38.122555 7.560265 37.373963 H 0.0 **** 0.0
1467 H 37.194987 6.373918 37.218752 H 0.0 **** 0.0
1468 M 37.99876 6.696635 37.33174 M 0.0 **** 0.0
1469 O 28.453623 17.311132 23.075972 O 0.0 **** 0.0
1470 H 28.438737 18.240662 22.847982 H 0.0 **** 0.0
1471 H 27.599727 16.981603 22.795792 H 0.0 **** 0.0
1472 M 28.342408 17.387939 23.01092 M 0.0 **** 0.0
1473 O 44.484556 17.118284 26.599908 O 0.0 **** 0.0
1474 H 43.778024 16.598094 26.217229 H 0.0 **** 0.0
1475 H 44.349979 17.999388 26.250948 H 0.0 **** 0.0
1476 M 44.376883 17.164485 26.506249 M 0.0 **** 0.0
1477 O 19.123929 38.13685 25.338841 O 0.0 **** 0.0
1478 H 19.439747 39.032951 25.222692 H 0.0 **** 0.0
1479 H 19.701746 37.605817 24.790788 H 0.0 **** 0.0
1480 M 19.238326 38.183583 25.253814 M 0.0 **** 0.0
1481 O 30.005769 25.342779 5.160658 O 0.0 **** 0.0
1482 H 30.488317 24.717443 4.619983 H 0.0 **** 0.0
1483 H 29.111298 25.313478 4.821111 H 0.0 **** 0.0
1484 M 29.953038 25.258977 5.047979 M 0.0 **** 0.0
1485 O 7.447823 44.911363 25.151782 O 0.0 **** 0.0
1486 H 7.700208 44.038878 24.84962 H 0.0 **** 0.0
1487 H 6.561466 45.035764 24.812483 H 0.0 **** 0.0
1488 M 7.366667 44.815599 25.069667 M 0.0 **** 0.0
1489 O 28.927305 9.198837 29.052953 O 0.0 **** 0.0
1490 H 29.779464 8.907409 28.728727 H 0.0 **** 0.0
1491 H 28.295691 8.821196 28.440842 H 0.0 **** 0.0
1492 M 28.955537 9.113188 28.93309 M 0.0 **** 0.0
1493 O 0.675337 42.589844 42.52294 O 0.0 **** 0.0
1494 H 1.500535 42.105003 42.537288 H 0.0 **** 0.0
1495 H -0.001035 41.912538 42.525598 H 0.0 **** 0.0
1496 M 0.694389 42.441074 42.525117 M 0.0 **** 0.0
1497 O 35.6448 36.031823 44.42798 O 0.0 **** 0.0
1498 H 35.279805 35.339755 43.876574 H 0.0 **** 0.0
1499 H 35.658042 36.805595 43.864659 H 0.0 **** 0.0
1500 M 35.599771 36.042282 44.285281 M 0.0 **** 0.0
1501 O 14.312603 44.418598 39.059824 O 0.0 **** 0.0
1502 H 13.766737 44.374729 39.844893 H 0.0 **** 0.0
1503 H 14.804187 45.234435 39.154606 H 0.0 **** 0.0
1504 M 14.305655 44.51742 39.172456 M 0.0 **** 0.0
1505 O 36.998853 23.424807 3.986727 O 0.0 **** 0.0
1506 H 37.406568 24.272682 4.163092 H 0.0 **** 0.0
1507 H 36.529176 23.55121 3.162316 H 0.0 **** 0.0
1508 M 36.990921 23.549527 3.903769 M 0.0 **** 0.0
1509 O 46.278045 25.66327 44.496749 O 0.0 **** 0.0
1510 H 46.556316 24.75645 44.62509 H 0.0 **** 0.0
1511 H 45.365986 25.596699 44.214005 H 0.0 **** 0.0
1512 M 46.196912 25.538664 44.476983 M 0.0 **** 0.0
1513 O 43.490909 44.100725 31.912151 O 0.0 **** 0.0
1514 H 43.021448 43.44707 32.430388 H 0.0 **** 0.0
1515 H 42.801137 44.614474 31.492025 H 0.0 **** 0.0
1516 M 43.342513 44.082816 31.924711 M 0.0 **** 0.0
1517 O 17.655557 19.791803 22.076579 O 0.0 **** 0.0
1518 H 17.441764 20.707528 22.25538 H 0.0 **** 0.0
1519 H 16.883735 19.448674 21.626266 H 0.0 **** 0.0
1520 M 17.529386 19.865102 22.041822 M 0.0 **** 0.0
1521 O 14.073705 35.307879 22.009518 O 0.0 **** 0.0
1522 H 14.095967 35.487054 22.949534 H 0.0 **** 0.0
1523 H 13.851534 34.37889 21.947477 H 0.0 **** 0.0
1524 M 14.048114 35.211893 22.12191 M 0.0 **** 0.0
1525 O 21.013975 22.607219 20.863187 O 0.0 **** 0.0
1526 H 20.470803 22.885654 20.125849 H 0.0 **** 0.0
1527 H 21.892778 22.917157 20.644391 H 0.0 **** 0.0
1528 M 21.05694 22.682538 20.740789 M 0.0 **** 0.0
1529 O 33.158677 22.909749 32.065449 O 0.0 **** 0.0
1530 H 33.50384 23.58657 32.64769 H 0.0 **** 0.0
1531 H 33.862567 22.26397 32.00431 H 0.0 **** 0.0
1532 M 33.292969 22.913722 32.132157 M 0.0 **** 0.0
1533 O 12.172352 41.905047 30.055288 O 0.0 **** 0.0
1534 H 12.349435 41.154764 30.62269 H 0.0 **** 0.0
1535 H 12.24698 42.665163 30.632249 H 0.0 **** 0.0
1536 M 12.204574 41.906306 30.201781 M 0.0 **** 0.0
1537 O 39.447459 -0.027494 23.567085 O 0.0 **** 0.0
1538 H 38.79893 0.674664 23.515963 H 0.0 **** 0.0
1539 H 40.118245 0.308193 24.161719 H 0.0 **** 0.0
1540 M 39.450308 0.105363 23.636661 M 0.0 **** 0.0
1541 O 30.763188 19.025265 24.676454 O 0.0 **** 0.0
1542 H 30.768372 19.822862 24.147266 H 0.0 **** 0.0
1543 H 30.260648 18.396682 24.15822 H 0.0 **** 0.0
1544 M 30.69952 19.046901 24.542371 M 0.0 **** 0.0
1545 O 8.93018 20.178505 16.068729 O 0.0 **** 0.0
1546 H 9.274054 20.505775 16.899918 H 0.0 **** 0.0
1547 H 8.026489 20.492956 16.042415 H 0.0 **** 0.0
1548 M 8.858517 20.260654 16.171763 M 0.0 **** 0.0
1549 O 29.436538 43.885708 5.703583 O 0.0 **** 0.0
1550 H 29.102416 44.782078 5.670217 H 0.0 **** 0.0
1551 H 30.337198 43.976731 6.014637 H 0.0 **** 0.0
1552 M 29.509062 44.012107 5.739131 M 0.0 **** 0.0
1553 O 26.029004 1.699593 47.398292 O 0.0 **** 0.0
1554 H 26.971869 1.535412 47.381592 H 0.0 **** 0.0
1555 H 25.639265 0.89545 47.055239 H 0.0 **** 0.0
1556 M 26.099811 1.575636 47.352239 M 0.0 **** 0.0
1557 O 36.330556 45.121322 36.722875 O 0.0 **** 0.0
1558 H 36.378756 44.664381 37.562584 H 0.0 **** 0.0
1559 H 35.489634 44.853841 36.352021 H 0.0 **** 0.0
1560 M 36.229078 45.028587 36.782894 M 0.0 **** 0.0
1561 O 17.35856 37.329013 33.436191 O 0.0 **** 0.0
1562 H 17.844338 36.949344 32.704002 H 0.0 **** 0.0
1563 H 16.623111 37.784093 33.026015 H 0.0 **** 0.0
1564 M 17.326599 37.338667 33.289954 M 0.0 **** 0.0
1565 O 7.832075 28.508616 22.527595 O 0.0 **** 0.0
1566 H 7.624542 28.49055 21.59334 H 0.0 **** 0.0
1567 H 7.187114 27.925598 22.928023 H 0.0 **** 0.0
1568 M 7.722945 28.43167 22.459258 M 0.0 **** 0.0
1569 O 40.829603 33.018804 38.496268 O 0.0 **** 0.0
1570 H 40.653282 32.699269 39.381162 H 0.0 **** 0.0
1571 H 40.137649 33.658932 38.329942 H 0.0 **** 0.0
1572 M 40.718453 33.059844 38.588254 M 0.0 **** 0.0
1573 O 39.241448 6.790551 5.464337 O 0.0 **** 0.0
1574 H 40.106962 7.123139 5.226641 H 0.0 **** 0.0
1575 H 39.417348 5.965989 5.917532 H 0.0 **** 0.0
1576 M 39.374762 6.727572 5.491924 M 0.0 **** 0.0
1577 O 39.858378 16.877388 31.729755 O 0.0 **** 0.0
1578 H 40.796678 16.909618 31.916259 H 0.0 **** 0.0
1579 H 39.555488 16.077811 32.160061 H 0.0 **** 0.0
1580 M 39.939718 16.779158 31.808714 M 0.0 **** 0.0
1581 O 5.621811 40.757016 15.467676 O 0.0 **** 0.0
1582 H 5.807513 41.688499 15.586347 H 0.0 **** 0.0
1583 H 4.666934 40.697065 15.496731 H 0.0 **** 0.0
1584 M 5.523347 40.868583 15.486587 M 0.0 **** 0.0
1585 O 10.469969 32.936989 7.792513 O 0.0 **** 0.0
1586 H 10.465728 32.192787 8.394489 H 0.0 **** 0.0
1587 H 9.563123 33.24321 7.783089 H 0.0 **** 0.0
1588 M 10.353338 32.880922 7.868367 M 0.0 **** 0.0
1589 O 19.057535 45.007284 43.464341 O 0.0 **** 0.0
1590 H 18.948534 45.886872 43.102855 H 0.0 **** 0.0
1591 H 18.166924 44.716179 43.660042 H 0.0 **** 0.0
1592 M 18.929572 45.082617 43.443118 M 0.0 **** 0.0
1593 O 5.813406 25.312707 5.775345 O 0.0 **** 0.0
1594 H 5.949917 26.248191 5.925221 H 0.0 **** 0.0
1595 H 5.330098 25.269867 4.950234 H 0.0 **** 0.0
1596 M 5.769011 25.426977 5.688906 M 0.0 **** 0.0
1597 O 12.822299 17.524418 32.508744 O 0.0 **** 0.0
1598 H 13.184724 18.375034 32.756389 H 0.0 **** 0.0
1599 H 13.107468 16.930655 33.20326 H 0.0 **** 0.0
1600 M 12.905199 17.557298 32.629352 M 0.0 **** 0.0
1601 O 44.127267 9.171806 10.146166 O 0.0 **** 0.0
1602 H 45.055278 9.062847 10.353899 H 0.0 **** 0.0
1603 H 43.891265 8.372495 9.675385 H 0.0 **** 0.0
1604 M 44.215853 9.055536 10.112492 M 0.0 **** 0.0
1605 O 17.847765 34.814612 0.69359 O 0.0 **** 0.0
1606 H 16.990676 34.419573 0.533679 H 0.0 **** 0.0
1607 H 17.868877 34.96794 1.638193 H 0.0 **** 0.0
1608 M 17.740749 34.78367 0.794041 M 0.0 **** 0.0
1609 O 47.944348 26.674609 17.656022 O 0.0 **** 0.0
1610 H 47.035728 26.52292 17.395966 H 0.0 **** 0.0
1611 H 48.001034 26.32494 18.545262 H 0.0 **** 0.0
1612 M 47.83529 26.610429 17.736566 M 0.0 **** 0.0
1613 O 11.283162 10.599653 47.614178 O 0.0 **** 0.0
1614 H 11.905357 11.308779 47.452185 H 0.0 **** 0.0
1615 H 10.48659 10.870335 47.157633 H 0.0 **** 0.0
1616 M 11.260839 10.72508 47.534997 M 0.0 **** 0.0
1617 O 18.549035 27.463008 32.423915 O 0.0 **** 0.0
1618 H 18.115761 27.706922 33.241844 H 0.0 **** 0.0
1619 H 18.713071 26.523907 32.510005 H 0.0 **** 0.0
1620 M 18.514569 27.374015 32.539641 M 0.0 **** 0.0
1621 O 40.180503 30.780591 27.988326 O 0.0 **** 0.0
1622 H 39.724041 31.30717 28.644516 H 0.0 **** 0.0
1623 H 41.076683 30.711162 28.317369 H 0.0 **** 0.0
1624 M 40.236792 30.839112 28.114448 M 0.0 **** 0.0
1625 O 28.65439 40.561036 19.054897 O 0.0 **** 0.0
1626 H 28.149975 40.938878 18.33446 H 0.0 **** 0.0
1627 H 29.521592 40.400987 18.682643 H 0.0 **** 0.0
1628 M 28.700831 40.588916 18.915019 M 0.0 **** 0.0
1629 O 6.13621 14.212483 41.98811 O 0.0 **** 0.0
1630 H 6.352854 15.137664 41.872636 H 0.0 **** 0.0
1631 H 5.451225 14.043835 41.341131 H 0.0 **** 0.0
1632 M 6.076257 14.309328 41.890506 M 0.0 **** 0.0
1633 O 24.946147 23.07797 16.2665 O 0.0 **** 0.0
1634 H 24.445566 22.263384 16.220716 H 0.0 **** 0.0
1635 H 24.281952 23.765092 16.320699 H 0.0 **** 0.0
1636 M 24.797041 23.061653 16.267577 M 0.0 **** 0.0
1637 O 12.845398 38.283675 22.466579 O 0.0 **** 0.0
1638 H 12.953806 39.223043 22.318043 H 0.0 **** 0.0
1639 H 13.727461 37.92306 22.376303 H 0.0 **** 0.0
1640 M 12.972191 38.357763 22.436008 M 0.0 **** 0.0
1641 O 7.073484 17.398278 16.128127 O 0.0 **** 0.0
1642 H 7.285009 16.672949 15.540434 H 0.0 **** 0.0
1643 H 6.156785 17.599824 15.940319 H 0.0 **** 0.0
1644 M 6.983213 17.331227 16.028853 M 0.0 **** 0.0
1645 O 26.555258 39.934078 19.468383 O 0.0 **** 0.0
1646 H 25.826922 39.440485 19.845371 H 0.0 **** 0.0
1647 H 26.216931 40.824154 19.370773 H 0.0 **** 0.0
1648 M 26.418712 39.984833 19.504147 M 0.0 **** 0.0
1649 O 18.911825 42.01948 25.750222 O 0.0 **** 0.0
1650 H 19.073531 42.943891 25.938756 H 0.0 **** 0.0
1651 H 18.043652 41.848401 26.115239 H 0.0 **** 0.0
1652 M 18.821388 42.115916 25.821083 M 0.0 **** 0.0
1653 O 14.517142 13.91705 4.656534 O 0.0 **** 0.0
1654 H 14.898271 14.628474 5.171166 H 0.0 **** 0.0
1655 H 13.664816 14.252132 4.378165 H 0.0 **** 0.0
1656 M 14.456823 14.051016 4.686778 M 0.0 **** 0.0
1657 O 25.354273 13.500998 5.652875 O 0.0 **** 0.0
1658 H 26.199612 13.374646 6.083764 H 0.0 **** 0.0
1659 H 24.724196 13.554261 6.371481 H 0.0 **** 0.0
1660 M 25.381829 13.491642 5.800025 M 0.0 **** 0.0
1661 O 8.561337 21.39886 6.826875 O 0.0 **** 0.0
1662 H 9.224185 20.748842 6.59377 H 0.0 **** 0.0
1663 H 7.756427 21.077036 6.420946 H 0.0 **** 0.0
1664 M 8.543151 21.274452 6.745071 M 0.0 **** 0.0
1665 O 14.954743 32.680521 39.539857 O 0.0 **** 0.0
1666 H 15.826288 32.284826 39.53193 H 0.0 **** 0.0
1667 H 14.35373 31.93866 39.471638 H 0.0 **** 0.0
1668 M 14.989375 32.5349 39.530109 M 0.0 **** 0.0
1669 O 12.140826 15.816653 23.59076 O 0.0 **** 0.0
1670 H 12.912365 16.382467 23.562311 H 0.0 **** 0.0
1671 H 11.422144 16.402588 23.828261 H 0.0 **** 0.0
1672 M 12.147592 15.964092 23.617522 M 0.0 **** 0.0
1673 O 9.46242 18.638424 41.293961 O 0.0 **** 0.0
1674 H 8.695942 18.567697 40.724981 H 0.0 **** 0.0
1675 H 9.955958 17.83426 41.13281 H 0.0 **** 0.0
1676 M 9.42748 18.526427 41.200495 M 0.0 **** 0.0
1677 O 40.469965 19.36027 30.142715 O 0.0 **** 0.0
1678 H 41.174737 19.975873 29.941326 H 0.0 **** 0.0
1679 H 40.781656 18.881531 30.910756 H 0.0 **** 0.0
1680 M 40.600085 19.37779 30.215254 M 0.0 **** 0.0
1681 O 20.701983 35.749279 7.017256 O 0.0 **** 0.0
1682 H 21.605787 36.051982 7.105217 H 0.0 **** 0.0
1683 H 20.772612 34.796478 6.958853 H 0.0 **** 0.0
1684 M 20.826722 35.666058 7.02104 M 0.0 **** 0.0
1685 O 2.937966 16.70512 11.956008 O 0.0 **** 0.0
1686 H 2.939937 15.750645 12.028132 H 0.0 **** 0.0
1687 H 3.795285 16.919785 11.588378 H 0.0 **** 0.0
1688 M 3.047966 16.610415 11.91818 M 0.0 **** 0.0
1689 O 2.444237 38.742958 40.311302 O 0.0 **** 0.0
1690 H 2.974342 37.97503 40.097984 H 0.0 **** 0.0
1691 H 1.695759 38.391484 40.793459 H 0.0 **** 0.0
1692 M 2.416282 38.59966 40.345717 M 0.0 **** 0.0
1693 O 2.88709 23.583978 42.59596 O 0.0 **** 0.0
1694 H 3.103867 22.720733 42.948158 H 0.0 **** 0.0
1695 H 3.722985 23.934466 42.28828 H 0.0 **** 0.0
1696 M 3.021845 23.518339 42.601659 M 0.0 **** 0.0
1697 O 13.488702 12.784117 44.244551 O 0.0 **** 0.0
1698 H 13.057674 12.950753 43.406293 H 0.0 **** 0.0
1699 H 13.767501 13.648407 44.547046 H 0.0 **** 0.0
1700 M 13.469215 12.916089 44.175966 M 0.0 **** 0.0
1701 O 19.70388 32.361752 21.356906 O 0.0 **** 0.0
1702 H 20.371518 31.690645 21.498693 H 0.0 **** 0.0
1703 H 18.872505 31.895911 21.446556 H 0.0 **** 0.0
1704 M 19.68292 32.216208 21.386533 M 0.0 **** 0.0
1705 O 42.878279 25.684471 35.678772 O 0.0 **** 0.0
1706 H 43.147315 25.137086 34.94106 H 0.0 **** 0.0
1707 H 41.944511 25.502534 35.784626 H 0.0 **** 0.0
1708 M 42.793185 25.591109 35.597886 M 0.0 **** 0.0
1709 O 30.221574 14.445072 18.657581 O 0.0 **** 0.0
1710 H 31.066524 14.89483 18.66008 H 0.0 **** 0.0
1711 H 29.574815 15.149586 18.617692 H 0.0 **** 0.0
1712 M 30.246945 14.592834 18.652795 M 0.0 **** 0.0
1713 O 30.031961 42.995326 34.788001 O 0.0 **** 0.0
1714 H 30.842793 43.479026 34.630475 H 0.0 **** 0.0
1715 H 29.359315 43.672246 34.862538 H 0.0 **** 0.0
1716 M 30.049651 43.1439 34.777377 M 0.0 **** 0.0
1717 O 44.387827 10.627793 42.844553 O 0.0 **** 0.0
1718 H 44.190749 9.737405 42.553697 H 0.0 **** 0.0
1719 H 45.192409 10.859275 42.380557 H 0.0 **** 0.0
1720 M 44.465595 10.543445 42.747923 M 0.0 **** 0.0
1721 O 8.089204 13.65127 4.549003 O 0.0 **** 0.0
1722 H 8.172203 12.835492 4.055195 H 0.0 **** 0.0
1723 H 7.169402 13.897887 4.452187 H 0.0 **** 0.0
1724 M 7.982083 13.57841 4.473396 M 0.0 **** 0.0
1725 O 22.038402 25.582037 7.10378 O 0.0 **** 0.0
1726 H 21.090322 25.676286 7.195924 H 0.0 **** 0.0
1727 H 22.340283 26.448368 6.830711 H 0.0 **** 0.0
1728 M 21.95568 25.705003 7.08062 M 0.0 **** 0.0
1729 O 18.779221 25.469585 38.613924 O 0.0 **** 0.0
1730 H 19.54528 25.799802 39.083326 H 0.0 **** 0.0
1731 H 18.436508 26.231975 38.147514 H 0.0 **** 0.0
1732 M 18.833414 25.609452 38.614307 M 0.0 **** 0.0
1733 O 46.979907 36.973581 38.981722 O 0.0 **** 0.0
1734 H 46.555036 36.563763 39.735222 H 0.0 **** 0.0
1735 H 46.460581 36.689487 38.229512 H 0.0 **** 0.0
1736 M 46.859038 36.884751 38.981887 M 0.0 **** 0.0
1737 O 47.930597 0.493445 45.284008 O 0.0 **** 0.0
1738 H 47.352607 -0.087538 44.789422 H 0.0 **** 0.0
1739 H 48.031636 1.264014 44.725221 H 0.0 **** 0.0
1740 M 47.869541 0.517714 45.149163 M 0.0 **** 0.0
1741 O 31.639713 42.804815 24.326487 O 0.0 **** 0.0
1742 H 31.526363 43.469952 25.005436 H 0.0 **** 0.0
1743 H 31.796005 43.304221 23.524991 H 0.0 **** 0.0
1744 M 31.64521 42.953891 24.310799 M 0.0 **** 0.0
1745 O 12.687717 39.891216 26.574665 O 0.0 **** 0.0
1746 H 13.519841 40.363582 26.600515 H 0.0 **** 0.0
1747 H 12.927939 38.974393 26.708673 H 0.0 **** 0.0
1748 M 12.824991 39.83432 26.595129 M 0.0 **** 0.0
1749 O 26.596544 32.819389 28.765607 O 0.0 **** 0.0
1750 H 25.972137 33.544866 28.760244 H 0.0 **** 0.0
1751 H 26.050779 32.033027 28.767505 H 0.0 **** 0.0
1752 M 26.446747 32.811595 28.765163 M 0.0 **** 0.0
1753 O 19.299107 36.665282 37.983822 O 0.0 **** 0.0
1754 H 18.555237 37.079106 37.546059 H 0.0 **** 0.0
1755 H 19.928405 37.375334 38.110464 H 0.0 **** 0.0
1756 M 19.28444 36.809152 37.943994 M 0.0 **** 0.0
1757 O 32.348495 4.632276 2.277417 O 0.0 **** 0.0
1758 H 32.701541 3.74319 2.244049 H 0.0 **** 0.0
1759 H 31.399922 4.512289 2.322589 H 0.0 **** 0.0
1760 M 32.27226 4.503102 2.278928 M 0.0 **** 0.0
1761 O 36.430157 11.944589 37.640664 O 0.0 **** 0.0
1762 H 35.943192 12.407275 38.322584 H 0.0 **** 0.0
1763 H 36.967463 11.311609 38.11697 H 0.0 **** 0.0
1764 M 36.436601 11.922789 37.788931 M 0.0 **** 0.0
1765 O 39.244069 15.531253 5.485794 O 0.0 **** 0.0
1766 H 39.014755 14.601988 5.475284 H 0.0 **** 0.0
1767 H 38.436842 15.974707 5.746489 H 0.0 **** 0.0
1768 M 39.111379 15.469063 5.517821 M 0.0 **** 0.0
1769 O 22.087122 46.255825 29.999399 O 0.0 **** 0.0
1770 H 21.578487 46.767885 30.628138 H 0.0 **** 0.0
1771 H 21.931775 45.345174 30.25002 H 0.0 **** 0.0
1772 M 22.002124 46.2048 30.111968 M 0.0 **** 0.0
1773 O 40.472833 21.389681 34.295238 O 0.0 **** 0.0
1774 H 40.45711 21.989692 33.549605 H 0.0 **** 0.0
1775 H 40.258936 21.938679 35.049611 H 0.0 **** 0.0
1776 M 40.443439 21.536769 34.296357 M 0.0 **** 0.0
1777 O 44.117707 4.690222 26.115463 O 0.0 **** 0.0
1778 H 43.451028 4.96164 26.746415 H 0.0 **** 0.0
1779 H 43.86106 5.115527 25.297248 H 0.0 **** 0.0
1780 M 43.99951 4.779412 26.091491 M 0.0 **** 0.0
1781 O 37.366077 8.762739 13.650416 O 0.0 **** 0.0
1782 H 37.979432 8.711711 12.917326 H 0.0 **** 0.0
1783 H 37.620991 8.042604 14.227177 H 0.0 **** 0.0
1784 M 37.477226 8.664021 13.630404 M 0.0 **** 0.0
1785 O 38.851244 40.493932 14.248973 O 0.0 **** 0.0
1786 H 38.627745 41.196906 14.858977 H 0.0 **** 0.0
1787 H 38.286092 39.765117 14.505215 H 0.0 **** 0.0
1788 M 38.750287 40.490624 14.359863 M 0.0 **** 0.0
1789 O 9.21824 0.004074 6.848725 O 0.0 **** 0.0
1790 H 10.015802 0.531698 6.807058 H 0.0 **** 0.0
1791 H 8.50622 0.643544 6.830409 H 0.0 **** 0.0
1792 M 9.22919 0.153477 6.841047 M 0.0 **** 0.0
1793 O 0.521099 28.520141 43.428951 O 0.0 **** 0.0
1794 H 0.000529 29.190801 43.87105 H 0.0 **** 0.0
1795 H 5.2e-05 28.277803 42.663437 H 0.0 **** 0.0
1796 M 0.387759 28.574972 43.38755 M 0.0 **** 0.0
1797 O 29.598074 45.261179 37.054657 O 0.0 **** 0.0
1798 H 29.109947 45.86189 36.491535 H 0.0 **** 0.0
1799 H 30.481191 45.628789 37.089237 H 0.0 **** 0.0
1800 M 29.648637 45.385136 36.986997 M 0.0 **** 0.0
1801 O 19.832879 21.522061 34.545796 O 0.0 **** 0.0
1802 H 20.097377 22.342836 34.130347 H 0.0 **** 0.0
1803 H 19.822896 21.719459 35.482366 H 0.0 **** 0.0
1804 M 19.86546 21.6524 34.612506 M 0.0 **** 0.0
1805 O 41.501592 30.841426 38.114469 O 0.0 **** 0.0
1806 H 41.084941 30.289388 37.452741 H 0.0 **** 0.0
1807 H 42.438519 30.768354 37.932651 H 0.0 **** 0.0
1808 M 41.568194 30.761404 38.006485 M 0.0 **** 0.0
1809 O 25.738265 30.675418 0.26383 O 0.0 **** 0.0
1810 H 25.478625 30.636448 1.184318 H 0.0 **** 0.0
1811 H 25.572162 31.582094 0.005802 H 0.0 **** 0.0
1812 M 25.683764 30.786495 0.348633 M 0.0 **** 0.0
1813 O 16.059306 45.968706 26.044067 O 0.0 **** 0.0
1814 H 15.147272 46.257471 26.076278 H 0.0 **** 0.0
1815 H 16.02095 45.031024 26.232507 H 0.0 **** 0.0
1816 M 15.937644 45.885637 26.072313 M 0.0 **** 0.0
1817 O 21.01323 33.769151 9.161688 O 0.0 **** 0.0
1818 H 20.26397 33.191236 9.306089 H 0.0 **** 0.0
1819 H 20.638939 34.650107 9.154479 H 0.0 **** 0.0
1820 M 20.869402 33.807944 9.179251 M 0.0 **** 0.0
1821 O 14.010394 14.012184 18.308155 O 0.0 **** 0.0
1822 H 13.68096 14.239964 19.177533 H 0.0 **** 0.0
1823 H 14.676172 14.674432 18.122695 H 0.0 **** 0.0
1824 M 14.05345 14.126119 18.395705 M 0.0 **** 0.0
1825 O 1.724501 9.776015 16.555406 O 0.0 **** 0.0
1826 H 2.245072 10.573839 16.462062 H 0.0 **** 0.0
1827 H 0.817058 10.071561 16.481727 H 0.0 **** 0.0
1828 M 1.674977 9.91598 16.534025 M 0.0 **** 0.0
1829 O 37.738316 3.41336 44.980002 O 0.0 **** 0.0
1830 H 37.540021 3.440728 45.916036 H 0.0 **** 0.0
1831 H 37.51714 2.520914 44.713824 H 0.0 **** 0.0
1832 M 37.684619 3.302619 45.065752 M 0.0 **** 0.0
1833 O 1.634447 21.603291 5.923539 O 0.0 **** 0.0
1834 H 1.430056 21.31113 5.035229 H 0.0 **** 0.0
1835 H 2.197021 22.367993 5.801191 H 0.0 **** 0.0
1836 M 1.680299 21.663782 5.794162 M 0.0 **** 0.0
1837 O 11.779956 27.31262 36.45139 O 0.0 **** 0.0
1838 H 12.648016 26.980571 36.680397 H 0.0 **** 0.0
1839 H 11.572573 26.888138 35.618902 H 0.0 **** 0.0
1840 M 11.864531 27.215774 36.374137 M 0.0 **** 0.0
1841 O 17.243038 10.392316 29.001134 O 0.0 **** 0.0
1842 H 17.218107 9.733304 28.307369 H 0.0 **** 0.0
1843 H 18.137882 10.731359 28.978036 H 0.0 **** 0.0
1844 M 17.354398 10.351356 28.909366 M 0.0 **** 0.0
1845 O 30.446622 16.480718 16.586966 O 0.0 **** 0.0
1846 H 30.637574 16.709368 17.496628 H 0.0 **** 0.0
1847 H 31.056288 17.010505 16.073291 H 0.0 **** 0.0
1848 M 30.549111 16.577807 16.637657 M 0.0 **** 0.0
1849 O 0.302788 45.763402 29.731699 O 0.0 **** 0.0
1850 H 0.571863 45.129979 30.396982 H 0.0 **** 0.0
1851 H 0.669167 46.595653 30.030618 H 0.0 **** 0.0
1852 M 0.384134 45.788854 29.855129 M 0.0 **** 0.0
1853 O 46.094065 44.351628 5.488268 O 0.0 **** 0.0
1854 H 46.189463 44.322397 6.440252 H 0.0 **** 0.0
1855 H 45.163548 44.187529 5.335172 H 0.0 **** 0.0
1856 M 45.98716 44.32688 5.590536 M 0.0 **** 0.0
1857 O 29.641118 33.435829 45.868052 O 0.0 **** 0.0
1858 H 29.39384 33.802367 46.717012 H 0.0 **** 0.0
1859 H 28.843888 33.01421 45.547287 H 0.0 **** 0.0
1860 M 29.507408 33.428778 45.935667 M 0.0 **** 0.0
1861 O 1.452481 30.413739 8.801672 O 0.0 **** 0.0
1862 H 1.613729 31.332376 9.016928 H 0.0 **** 0.0
1863 H 0.511095 30.368082 8.634527 H 0.0 **** 0.0
1864 M 1.352613 30.525492 8.807831 M 0.0 **** 0.0
1865 O 4.267627 35.154317 39.880807 O 0.0 **** 0.0
1866 H 3.875667 35.970105 40.192394 H 0.0 **** 0.0
1867 H 4.921868 35.431964 39.239629 H 0.0 **** 0.0
1868 M 4.301202 35.294291 39.838615 M 0.0 **** 0.0
1869 O 27.190888 11.133031 42.45071 O 0.0 **** 0.0
1870 H 27.321036 10.202442 42.268245 H 0.0 **** 0.0
1871 H 27.588137 11.266708 43.311263 H 0.0 **** 0.0
1872 M 27.258401 11.031017 42.537514 M 0.0 **** 0.0
1873 O 28.286658 8.163207 41.865076 O 0.0 **** 0.0
1874 H 27.966873 7.46314 42.434174 H 0.0 **** 0.0
1875 H 28.837174 7.716858 41.221699 H 0.0 **** 0.0
1876 M 28.316195 8.016451 41.855567 M 0.0 **** 0.0
1877 O 37.649765 32.184108 17.202188 O 0.0 **** 0.0
1878 H 38.284594 31.993304 17.892706 H 0.0 **** 0.0
1879 H 36.931689 31.571259 17.360335 H 0.0 **** 0.0
1880 M 37.639109 32.081231 17.310828 M 0.0 **** 0.0
1881 O 3.273207 46.526177 24.28711 O 0.0 **** 0.0
1882 H 2.976129 45.629708 24.131169 H 0.0 **** 0.0
1883 H 3.730783 46.770714 23.482713 H 0.0 **** 0.0
1884 M 3.293753 46.442721 24.164175 M 0.0 **** 0.0
1885 O 42.413849 41.588187 25.920274 O 0.0 **** 0.0
1886 H 41.493132 41.55559 26.179976 H 0.0 **** 0.0
1887 H 42.629146 42.520849 25.916083 H 0.0 **** 0.0
1888 M 42.323547 41.703407 25.952983 M 0.0 **** 0.0
1889 O 1.567334 42.721809 19.698672 O 0.0 **** 0.0
1890 H 1.073727 41.909995 19.815026 H 0.0 **** 0.0
1891 H 2.365402 42.454209 19.242924 H 0.0 **** 0.0
1892 M 1.606309 42.583631 19.655226 M 0.0 **** 0.0
1893 O 42.564746 42.022382 34.206742 O 0.0 **** 0.0
1894 H 42.027422 42.725735 34.571168 H 0.0 **** 0.0
1895 H 42.760188 41.45766 34.954484 H 0.0 **** 0.0
1896 M 42.520981 42.040129 34.349113 M 0.0 **** 0.0
1897 O 35.377527 21.980135 0.087647 O 0.0 **** 0.0
1898 H 35.505285 21.033339 0.146669 H 0.0 **** 0.0
1899 H 36.147849 22.35341 0.516015 H 0.0 **** 0.0
1900 M 35.492493 21.906717 0.150039 M 0.0 **** 0.0
1901 O 14.161202 30.267338 2.896172 O 0.0 **** 0.0
1902 H 14.826793 30.758161 2.414187 H 0.0 **** 0.0
1903 H 13.329281 30.569787 2.531944 H 0.0 **** 0.0
1904 M 14.139909 30.368887 2.787846 M 0.0 **** 0.0
1905 O 8.147667 6.090832 42.913853 O 0.0 **** 0.0
1906 H 8.787762 6.630724 43.377558 H 0.0 **** 0.0
1907 H 7.312317 6.537426 43.051597 H 0.0 **** 0.0
1908 M 8.122672 6.217114 42.990846 M 0.0 **** 0.0
1909 O 47.531605 17.62271 26.466827 O 0.0 **** 0.0
1910 H 47.583542 17.144915 27.294622 H 0.0 **** 0.0
1911 H 46.701862 18.097467 26.515405 H 0.0 **** 0.0
1912 M 47.432036 17.622321 26.579014 M 0.0 **** 0.0
1913 O 35.264225 34.488315 24.744726 O 0.0 **** 0.0
1914 H 34.86744 34.368074 25.607473 H 0.0 **** 0.0
1915 H 36.147765 34.80698 24.929224 H 0.0 **** 0.0
1916 M 35.326536 34.513716 24.878787 M 0.0 **** 0.0
1917 O 9.372693 15.624318 0.800006 O 0.0 **** 0.0
1918 H 9.591925 16.521056 1.053041 H 0.0 **** 0.0
1919 H 10.057568 15.3759 0.179148 H 0.0 **** 0.0
1920 M 9.48843 15.707312 0.75292 M 0.0 **** 0.0
1921 O 14.954544 34.181478 7.661506 O 0.0 **** 0.0
1922 H 15.805953 34.61224 7.585497 H 0.0 **** 0.0
1923 H 15.100061 33.470764 8.285956 H 0.0 **** 0.0
1924 M 15.082163 34.145641 7.731713 M 0.0 **** 0.0
1925 O 5.790059 1.106695 19.256721 O 0.0 **** 0.0
1926 H 5.107045 1.612763 18.816704 H 0.0 **** 0.0
1927 H 5.324714 0.609741 19.929565 H 0.0 **** 0.0
1928 M 5.643055 1.107862 19.286526 M 0.0 **** 0.0
1929 O 10.330864 14.654929 27.335295 O 0.0 **** 0.0
1930 H 11.200415 14.261143 27.264297 H 0.0 **** 0.0
1931 H 9.854285 14.078255 27.932411 H 0.0 **** 0.0
1932 M 10.381169 14.530698 27.402645 M 0.0 **** 0.0
1933 O 32.85147 40.702213 39.822999 O 0.0 **** 0.0
1934 H 32.570165 41.369955 40.448473 H 0.0 **** 0.0
1935 H 32.058967 40.483554 39.332738 H 0.0 **** 0.0
1936 M 32.714009 40.759701 39.840308 M 0.0 **** 0.0
1937 O 45.367859 3.042142 20.628151 O 0.0 **** 0.0
1938 H 44.894141 3.863989 20.75616 H 0.0 **** 0.0
1939 H 44.694994 2.416648 20.359378 H 0.0 **** 0.0
1940 M 45.221082 3.067277 20.610132 M 0.0 **** 0.0
1941 O 42.897631 35.193163 33.854396 O 0.0 **** 0.0
1942 H 43.503876 35.579623 34.486334 H 0.0 **** 0.0
1943 H 42.039823 35.537249 34.10339 H 0.0 **** 0.0
1944 M 42.865428 35.286682 33.967166 M 0.0 **** 0.0
1945 O 44.366266 16.736956 20.575177 O 0.0 **** 0.0
1946 H 43.49506 16.356053 20.464987 H 0.0 **** 0.0
1947 H 44.963718 16.073231 20.230579 H 0.0 **** 0.0
1948 M 44.331222 16.603231 20.516958 M 0.0 **** 0.0
1949 O 12.978201 23.327944 24.926923 O 0.0 **** 0.0
1950 H 12.181084 23.853716 24.993234 H 0.0 **** 0.0
1951 H 12.665594 22.425988 24.856355 H 0.0 **** 0.0
1952 M 12.836143 23.279788 24.926378 M 0.0 **** 0.0
1953 O 32.842953 40.387817 46.295262 O 0.0 **** 0.0
1954 H 33.153651 39.93798 47.080973 H 0.0 **** 0.0
1955 H 33.131857 39.832797 45.570889 H 0.0 **** 0.0
1956 M 32.919709 40.259183 46.303114 M 0.0 **** 0.0
1957 O 17.298544 34.068168 38.182409 O 0.0 **** 0.0
1958 H 16.449073 34.358818 38.514299 H 0.0 **** 0.0
1959 H 17.156502 33.157449 37.924257 H 0.0 **** 0.0
1960 M 17.171618 33.988792 38.191848 M 0.0 **** 0.0
1961 O 4.890734 29.06912 41.41558 O 0.0 **** 0.0
1962 H 5.11632 29.078157 40.485388 H 0.0 **** 0.0
1963 H 4.404798 28.253394 41.536766 H 0.0 **** 0.0
1964 M 4.857406 28.965853 41.312017 M 0.0 **** 0.0
1965 O 29.179049 22.287972 40.284883 O 0.0 **** 0.0
1966 H 28.258982 22.083831 40.452312 H 0.0 **** 0.0
1967 H 29.590642 21.436598 40.136613 H 0.0 **** 0.0
1968 M 29.113958 22.152853 40.287336 M 0.0 **** 0.0
1969 O 33.749715 13.815806 21.530566 O 0.0 **** 0.0
1970 H 34.17297 13.891401 22.385767 H 0.0 **** 0.0
1971 H 33.075919 13.147327 21.654517 H 0.0 **** 0.0
1972 M 33.717642 13.739909 21.65591 M 0.0 **** 0.0
1973 O 2.826608 30.688367 43.02803 O 0.0 **** 0.0
1974 H 3.708075 30.360912 42.849092 H 0.0 **** 0.0
1975 H 2.92346 31.640472 43.046569 H 0.0 **** 0.0
1976 M 2.951845 30.76833 43.007497 M 0.0 **** 0.0
1977 O 2.054444 16.877185 24.308917 O 0.0 **** 0.0
1978 H 1.671466 17.748051 24.203333 H 0.0 **** 0.0
1979 H 2.78397 17.007673 24.914717 H 0.0 **** 0.0
1980 M 2.098807 17.005371 24.372951 M 0.0 **** 0.0
1981 O 19.964821 0.331614 40.538089 O 0.0 **** 0.0
1982 H 19.840683 -0.023172 39.657779 H 0.0 **** 0.0
1983 H 20.772501 0.841952 40.479465 H 0.0 **** 0.0
1984 M 20.052323 0.351527 40.417893 M 0.0 **** 0.0
1985 O 31.577196 40.611368 7.226909 O 0.0 **** 0.0
1986 H 32.448785 40.250055 7.065621 H 0.0 **** 0.0
1987 H 30.976802 39.96337 6.858323 H 0.0 **** 0.0
1988 M 31.611912 40.482163 7.159078 M 0.0 **** 0.0
1989 O 40.488994 24.718659 34.334666 O 0.0 **** 0.0
1990 H 40.394643 24.212292 33.52787 H 0.0 **** 0.0
1991 H 40.081697 24.174448 35.008588 H 0.0 **** 0.0
1992 M 40.424777 24.584172 34.317656 M 0.0 **** 0.0
1993 O 41.263826 35.122224 22.213719 O 0.0 **** 0.0
1994 H 42.204402 35.04861 22.052082 H 0.0 **** 0.0
1995 H 40.906974 34.27606 21.943736 H 0.0 **** 0.0
1996 M 41.33855 35.004481 22.158466 M 0.0 **** 0.0
1997 O 29.015557 17.233003 8.430961 O 0.0 **** 0.0
1998 H 28.371644 16.613208 8.088237 H 0.0 **** 0.0
1999 H 28.491516 17.924927 8.834507 H 0.0 **** 0.0
2000 M 28.866045 17.242236 8.438747 M 0.0 **** 0.0
2001 O 30.427588 12.345467 9.814123 O 0.0 **** 0.0
2002 H 30.863402 12.430136 10.662136 H 0.0 **** 0.0
2003 H 30.817056 13.033388 9.274393 H 0.0 **** 0.0
2004 M 30.533235 12.444368 9.853587 M 0.0 **** 0.0
2005 O 33.394137 22.899784 0.276189 O 0.0 **** 0.0
2006 H 33.925916 23.604408 -0.093872 H 0.0 **** 0.0
2007 H 32.490349 23.18086 0.133391 H 0.0 **** 0.0
2008 M 33.346515 23.025966 0.210537 M 0.0 **** 0.0
2009 O 17.371016 25.847769 40.521638 O 0.0 **** 0.0
2010 H 18.015204 26.55082 40.605116 H 0.0 **** 0.0
2011 H 17.885908 25.042722 40.576553 H 0.0 **** 0.0
2012 M 17.519393 25.834712 40.539354 M 0.0 **** 0.0
2013 O 27.61823 44.601107 22.657417 O 0.0 **** 0.0
2014 H 26.663745 44.672498 22.647944 H 0.0 **** 0.0
2015 H 27.788105 43.659997 22.698442 H 0.0 **** 0.0
2016 M 27.51779 44.489772 22.661456 M 0.0 **** 0.0
2017 O 6.805903 31.843131 18.531039 O 0.0 **** 0.0
2018 H 6.062236 31.903373 17.931407 H 0.0 **** 0.0
2019 H 7.483354 32.386541 18.128552 H 0.0 **** 0.0
2020 M 6.797427 31.920406 18.402755 M 0.0 **** 0.0
2021 O 45.941664 25.371835 19.804475 O 0.0 **** 0.0
2022 H 45.357813 24.8851 19.222723 H 0.0 **** 0.0
2023 H 46.704923 24.803678 19.908695 H 0.0 **** 0.0
2024 M 45.96463 25.236796 19.743345 M 0.0 **** 0.0
2025 O 5.779003 27.218566 1.550758 O 0.0 **** 0.0
2026 H 5.571699 27.348879 0.625408 H 0.0 **** 0.0
2027 H 6.582683 27.719636 1.689525 H 0.0 **** 0.0
2028 M 5.855346 27.299391 1.450066 M 0.0 **** 0.0
2029 O 10.218978 43.51782 22.677128 O 0.0 **** 0.0
2030 H 10.385666 44.460393 22.677672 H 0.0 **** 0.0
2031 H 9.264719 43.442861 22.67711 H 0.0 **** 0.0
2032 M 10.118159 43.628886 22.677195 M 0.0 **** 0.0
2033 O 38.68451 38.373303 0.078307 O 0.0 **** 0.0
2034 H 39.400596 37.741645 0.145068 H 0.0 **** 0.0
2035 H 37.896127 37.835453 0.00484 H 0.0 **** 0.0
2036 M 38.675255 38.223591 0.077449 M 0.0 **** 0.0
2037 O 22.716338 30.537782 25.841839 O 0.0 **** 0.0
2038 H 23.106632 30.246254 25.017879 H 0.0 **** 0.0
2039 H 21.997334 31.111505 25.577067 H 0.0 **** 0.0
2040 M 22.674259 30.573907 25.702468 M 0.0 **** 0.0
2041 O 21.288728 15.507194 8.641629 O 0.0 **** 0.0
2042 H 21.822519 16.299181 8.577965 H 0.0 **** 0.0
2043 H 21.358758 15.100515 7.777953 H 0.0 **** 0.0
2044 M 21.366025 15.556518 8.522918 M 0.0 **** 0.0
2045 O 40.176946 25.473024 47.453706 O 0.0 **** 0.0
2046 H 40.141712 24.552595 47.193325 H 0.0 **** 0.0
2047 H 40.089001 25.958078 46.633208 H 0.0 **** 0.0
2048 M 40.161177 25.417291 47.31534 M 0.0 **** 0.0
2049 O 13.66606 19.324486 39.933551 O 0.0 **** 0.0
2050 H 13.315249 18.464076 40.163455 H 0.0 **** 0.0
2051 H 14.385272 19.137058 39.330365 H 0.0 **** 0.0
2052 M 13.71322 19.190349 39.885766 M 0.0 **** 0.0
2053 O 20.624862 31.04802 0.937829 O 0.0 **** 0.0
2054 H 19.946106 31.657122 1.228539 H 0.0 **** 0.0
2055 H 20.470074 30.254106 1.449659 H 0.0 **** 0.0
2056 M 20.518158 31.024361 1.040565 M 0.0 **** 0.0
2057 O 40.674745 37.339178 17.022526 O 0.0 **** 0.0
2058 H 41.630623 37.386578 17.039278 H 0.0 **** 0.0
2059 H 40.389693 38.252401 16.990945 H 0.0 **** 0.0
2060 M 40.760619 37.46215 17.020628 M 0.0 **** 0.0
2061 O 8.408896 6.8062 16.14588 O 0.0 **** 0.0
2062 H 7.673177 7.010766 16.723027 H 0.0 **** 0.0
2063 H 9.07436 7.458411 16.364987 H 0.0 **** 0.0
2064 M 8.399903 6.915878 16.24781 M 0.0 **** 0.0
2065 O 32.648481 14.395077 31.249442 O 0.0 **** 0.0
2066 H 33.523166 14.030024 31.383197 H 0.0 **** 0.0
2067 H 32.281119 14.466919 32.130414 H 0.0 **** 0.0
2068 M 32.713425 14.357542 31.37934 M 0.0 **** 0.0
2069 O 8.620504 17.165019 45.074363 O 0.0 **** 0.0
2070 H 9.377094 16.636592 44.820267 H 0.0 **** 0.0
2071 H 8.99834 17.964506 45.440816 H 0.0 **** 0.0
2072 M 8.765725 17.199718 45.088746 M 0.0 **** 0.0
2073 O 45.632618 39.926568 23.838221 O 0.0 **** 0.0
2074 H 45.087612 39.584081 23.129772 H 0.0 **** 0.0
2075 H 45.063701 40.539611 24.303776 H 0.0 **** 0.0
2076 M 45.490022 39.961202 23.807128 M 0.0 **** 0.0
2077 O 29.899226 34.043439 37.018481 O 0.0 **** 0.0
2078 H 29.632741 33.370269 37.644625 H 0.0 **** 0.0
2079 H 29.845626 33.612482 36.165468 H 0.0 **** 0.0
2080 M 29.858251 33.902097 36.989439 M 0.0 **** 0.0
2081 O 31.436059 20.286044 16.986929 O 0.0 **** 0.0
2082 H 30.710919 20.579284 16.435195 H 0.0 **** 0.0
2083 H 31.621693 19.396386 16.686466 H 0.0 **** 0.0
2084 M 31.366996 20.209695 16.877837 M 0.0 **** 0.0
2085 O 28.300434 14.197994 43.877312 O 0.0 **** 0.0
2086 H 27.349849 14.102084 43.818851 H 0.0 **** 0.0
2087 H 28.6439 13.339209 43.630842 H 0.0 **** 0.0
2088 M 28.222715 14.075781 43.838277 M 0.0 **** 0.0
2089 O 27.902239 6.711801 0.883611 O 0.0 **** 0.0
2090 H 28.411203 7.515221 0.775439 H 0.0 **** 0.0
2091 H 28.555322 6.037207 1.069715 H 0.0 **** 0.0
2092 M 28.050996 6.728293 0.893587 M 0.0 **** 0.0
2093 O 46.173815 43.888396 37.394222 O 0.0 **** 0.0
2094 H 46.530218 44.761747 37.231542 H 0.0 **** 0.0
2095 H 45.249664 43.957894 37.154756 H 0.0 **** 0.0
2096 M 46.101137 44.009093 37.342742 M 0.0 **** 0.0
2097 O 40.006689 1.734315 19.886535 O 0.0 **** 0.0
2098 H 40.768747 1.597394 20.449339 H 0.0 **** 0.0
2099 H 39.258402 1.494954 20.433345 H 0.0 **** 0.0
2100 M 40.008452 1.686146 20.02858 M 0.0 **** 0.0
2101 O 10.647109 36.420054 21.236547 O 0.0 **** 0.0
2102 H 11.382905 36.574884 20.644212 H 0.0 **** 0.0
2103 H 9.925228 36.922636 20.859017 H 0.0 **** 0.0
2104 M 10.64889 36.504211 21.112392 M 0.0 **** 0.0
2105 O 7.992091 22.670114 27.774253 O 0.0 **** 0.0
2106 H 8.418318 23.52707 27.787861 H 0.0 **** 0.0
2107 H 8.714798 22.042507 27.779903 H 0.0 **** 0.0
2108 M 8.139169 22.699474 27.776718 M 0.0 **** 0.0
2109 O 7.491604 19.594811 47.96685 O 0.0 **** 0.0
2110 H 8.394744 19.909392 48.006904 H 0.0 **** 0.0
2111 H 7.568709 18.640897 47.985048 H 0.0 **** 0.0
2112 M 7.617088 19.512968 47.974307 M 0.0 **** 0.0
2113 O 18.601111 14.09589 13.058321 O 0.0 **** 0.0
2114 H 19.171144 14.420136 12.361072 H 0.0 **** 0.0
2115 H 18.147261 14.875198 13.379147 H 0.0 **** 0.0
2116 M 18.615984 14.237159 13.010134 M 0.0 **** 0.0
2117 O 19.217266 45.163883 3.266953 O 0.0 **** 0.0
2118 H 19.514374 44.905871 4.139527 H 0.0 **** 0.0
2119 H 19.589852 44.504334 2.681801 H 0.0 **** 0.0
2120 M 19.302995 45.046424 3.303747 M 0.0 **** 0.0
2121 O 10.726598 33.898296 43.028656 O 0.0 **** 0.0
2122 H 10.242381 34.31234 42.314282 H 0.0 **** 0.0
2123 H 10.424868 32.989897 43.028241 H 0.0 **** 0.0
2124 M 10.625987 33.835012 42.937154 M 0.0 **** 0.0
2125 O 24.065283 29.255459 11.244303 O 0.0 **** 0.0
2126 H 24.401997 28.360123 11.279308 H 0.0 **** 0.0
2127 H 23.124032 29.163832 11.392215 H 0.0 **** 0.0
2128 M 23.987895 29.129116 11.267718 M 0.0 **** 0.0
2129 O 13.797815 45.582806 6.393631 O 0.0 **** 0.0
2130 H 13.563841 45.970079 5.550123 H 0.0 **** 0.0
2131 H 14.341279 44.827688 6.168529 H 0.0 **** 0.0
2132 M 13.837433 45.535718 6.256835 M 0.0 **** 0.0
2133 O 0.699409 16.04099 43.625629 O 0.0 **** 0.0
2134 H -0.00043 15.552511 44.059038 H 0.0 **** 0.0
2135 H 0.469259 16.960322 43.760117 H 0.0 **** 0.0
2136 M 0.580359 16.096144 43.698327 M 0.0 **** 0.0
2137 O 2.667827 7.173942 45.260274 O 0.0 **** 0.0
2138 H 2.874087 8.108651 45.258156 H 0.0 **** 0.0
2139 H 3.520969 6.739917 45.260533 H 0.0 **** 0.0
2140 M 2.803444 7.238036 45.260036 M 0.0 **** 0.0
2141 O 15.456148 42.384337 20.310463 O 0.0 **** 0.0
2142 H 16.11331 42.348436 21.005502 H 0.0 **** 0.0
2143 H 14.729803 42.877235 20.692174 H 0.0 **** 0.0
2144 M 15.447292 42.442838 20.448301 M 0.0 **** 0.0
2145 O 43.111359 16.33291 2.912838 O 0.0 **** 0.0
2146 H 43.717677 17.071413 2.969588 H 0.0 **** 0.0
2147 H 42.321314 16.636108 3.360196 H 0.0 **** 0.0
2148 M 43.08784 16.466261 2.97737 M 0.0 **** 0.0
2149 O 48.000962 29.193129 11.670933 O 0.0 **** 0.0
2150 H 47.088975 29.479577 11.62138 H 0.0 **** 0.0
2151 H 47.948912 28.242347 11.768573 H 0.0 **** 0.0
2152 M 47.877553 29.108086 11.677089 M 0.0 **** 0.0
2153 O 39.507608 17.882258 23.292279 O 0.0 **** 0.0
2154 H 39.807955 17.518094 22.45957 H 0.0 **** 0.0
2155 H 39.94845 17.354357 23.958017 H 0.0 **** 0.0
2156 M 39.60249 17.768063 23.270905 M 0.0 **** 0.0
2157 O 19.632173 38.005578 44.903825 O 0.0 **** 0.0
2158 H 20.420674 38.482417 44.64475 H 0.0 **** 0.0
2159 H 19.955903 37.166391 45.231227 H 0.0 **** 0.0
2160 M 19.774553 37.959193 44.912572 M 0.0 **** 0.0
2161 O 15.321226 46.372438 19.120133 O 0.0 **** 0.0
2162 H 14.470214 46.451809 18.689195 H 0.0 **** 0.0
2163 H 15.463142 47.225678 19.530095 H 0.0 **** 0.0
2164 M 15.230453 46.491824 19.117448 M 0.0 **** 0.0
2165 O 9.355708 45.115408 20.264495 O 0.0 **** 0.0
2166 H 10.193506 45.567853 20.166422 H 0.0 **** 0.0
2167 H 9.591681 44.193968 20.371703 H 0.0 **** 0.0
2168 M 9.493165 45.055371 20.265664 M 0.0 **** 0.0
2169 O 40.028638 14.693407 37.690176 O 0.0 **** 0.0
2170 H 39.31114 15.116516 38.161773 H 0.0 **** 0.0
2171 H 40.817952 15.12608 38.015761 H 0.0 **** 0.0
2172 M 40.037832 14.802958 37.792225 M 0.0 **** 0.0
2173 O 3.684681 47.074022 32.314404 O 0.0 **** 0.0
2174 H 3.6115 47.703005 31.596592 H 0.0 **** 0.0
2175 H 4.346527 47.448929 32.895466 H 0.0 **** 0.0
2176 M 3.760037 47.202533 32.296898 M 0.0 **** 0.0
2177 O 16.014235 6.755246 37.507299 O 0.0 **** 0.0
2178 H 16.212303 6.307959 36.68454 H 0.0 **** 0.0
2179 H 16.032431 6.062429 38.167528 H 0.0 **** 0.0
2180 M 16.041919 6.609298 37.486493 M 0.0 **** 0.0
2181 O 18.051142 1.753446 37.260472 O 0.0 **** 0.0
2182 H 18.96459 1.50471 37.401794 H 0.0 **** 0.0
2183 H 18.074969 2.704507 37.154906 H 0.0 **** 0.0
2184 M 18.171125 1.843352 37.265049 M 0.0 **** 0.0
2185 O 9.053506 9.813859 14.852144 O 0.0 **** 0.0
2186 H 8.778391 10.698934 15.091273 H 0.0 **** 0.0
2187 H 10.003585 9.818171 14.968593 H 0.0 **** 0.0
2188 M 9.13991 9.927712 14.897662 M 0.0 **** 0.0
2189 O 24.620937 2.402918 15.499447 O 0.0 **** 0.0
2190 H 23.805246 2.737909 15.871816 H 0.0 **** 0.0
2191 H 24.560454 1.453399 15.604254 H 0.0 **** 0.0
2192 M 24.508776 2.324251 15.560532 M 0.0 **** 0.0
2193 O 4.55663 44.239072 16.631851 O 0.0 **** 0.0
2194 H 3.689513 44.011392 16.296443 H 0.0 **** 0.0
2195 H 5.010171 43.400127 16.713709 H 0.0 **** 0.0
2196 M 4.503687 44.102531 16.599394 M 0.0 **** 0.0
2197 O 12.528582 21.840848 17.578934 O 0.0 **** 0.0
2198 H 12.220139 20.935206 17.548861 H 0.0 **** 0.0
2199 H 12.093117 22.217417 18.343653 H 0.0 **** 0.0
2200 M 12.433352 21.77312 17.672978 M 0.0 **** 0.0
2201 O 16.203589 45.970373 6.754067 O 0.0 **** 0.0
2202 H 16.423569 46.886785 6.921475 H 0.0 **** 0.0
2203 H 16.87237 45.473146 7.224945 H 0.0 **** 0.0
2204 M 16.317362 46.024034 6.835776 M 0.0 **** 0.0
2205 O 21.334944 0.966407 45.341669 O 0.0 **** 0.0
2206 H 20.998683 0.181382 45.773979 H 0.0 **** 0.0
2207 H 20.948331 1.693416 45.829743 H 0.0 **** 0.0
2208 M 21.242407 0.95898 45.459489 M 0.0 **** 0.0
2209 O 30.57351 9.097976 2.991238 O 0.0 **** 0.0
2210 H 30.156435 9.957393 2.930583 H 0.0 **** 0.0
2211 H 29.942384 8.557969 3.466949 H 0.0 **** 0.0
2212 M 30.439327 9.138864 3.04437 M 0.0 **** 0.0
2213 O 13.588165 32.712257 1.515049 O 0.0 **** 0.0
2214 H 13.467488 32.298305 0.660467 H 0.0 **** 0.0
2215 H 14.349106 33.281562 1.400636 H 0.0 **** 0.0
2216 M 13.670127 32.732144 1.391005 M 0.0 **** 0.0
2217 O 18.730806 16.668293 30.742491 O 0.0 **** 0.0
2218 H 19.107908 17.513217 30.987699 H 0.0 **** 0.0
2219 H 18.560699 16.7448 29.803641 H 0.0 **** 0.0
2220 M 18.757304 16.786248 30.653696 M 0.0 **** 0.0
2221 O 17.299465 18.572485 44.838241 O 0.0 **** 0.0
2222 H 16.348219 18.678976 44.833762 H 0.0 **** 0.0
2223 H 17.43481 17.625079 44.85648 H 0.0 **** 0.0
2224 M 17.195019 18.464837 44.840002 M 0.0 **** 0.0
2225 O 6.506641 36.593448 5.381679 O 0.0 **** 0.0
2226 H 7.219679 37.230375 5.335529 H 0.0 **** 0.0
2227 H 6.926949 35.783115 5.669655 H 0.0 **** 0.0
2228 M 6.651723 36.57125 5.412636 M 0.0 **** 0.0
2229 O 18.663467 18.225859 10.949166 O 0.0 **** 0.0
2230 H 19.235936 17.879479 11.633658 H 0.0 **** 0.0
2231 H 17.809401 18.313764 11.372337 H 0.0 **** 0.0
2232 M 18.627419 18.192771 11.090961 M 0.0 **** 0.0
2233 O 45.065987 20.898124 3.315485 O 0.0 **** 0.0
2234 H 45.199071 21.529796 2.608726 H 0.0 **** 0.0
2235 H 45.899276 20.88572 3.786339 H 0.0 **** 0.0
2236 M 45.189695 20.977398 3.285286 M 0.0 **** 0.0
2237 O 10.049667 23.663208 46.970238 O 0.0 **** 0.0
2238 H 10.682546 24.300388 46.639035 H 0.0 **** 0.0
2239 H 10.128723 22.915952 46.377291 H 0.0 **** 0.0
2240 M 10.140803 23.649117 46.851935 M 0.0 **** 0.0
2241 O 14.276245 45.736644 28.620529 O 0.0 **** 0.0
2242 H 13.939999 45.128312 29.278631 H 0.0 **** 0.0
2243 H 14.632523 45.173753 27.93318 H 0.0 **** 0.0
2244 M 14.278809 45.586713 28.616785 M 0.0 **** 0.0
2245 O 0.189596 44.496374 44.685389 O 0.0 **** 0.0
2246 H 0.170993 44.772172 43.768973 H 0.0 **** 0.0
2247 H -4.9e-05 43.55856 44.657671 H 0.0 **** 0.0
2248 M 0.162938 44.411628 44.564528 M 0.0 **** 0.0
2249 O 35.607461 43.400258 13.456086 O 0.0 **** 0.0
2250 H 36.550866 43.552473 13.511292 H 0.0 **** 0.0
2251 H 35.41228 42.830859 14.200342 H 0.0 **** 0.0
2252 M 35.703243 43.346854 13.558427 M 0.0 **** 0.0
2253 O 22.290934 0.068496 17.961478 O 0.0 **** 0.0
2254 H 21.677551 0.438886 18.596144 H 0.0 **** 0.0
2255 H 22.672482 0.829636 17.524081 H 0.0 **** 0.0
2256 M 22.261256 0.213346 17.986731 M 0.0 **** 0.0
2257 O 47.582586 1.195901 20.175896 O 0.0 **** 0.0
2258 H 47.899375 0.349218 20.49054 H 0.0 **** 0.0
2259 H 46.628899 1.114878 20.18797 H 0.0 **** 0.0
2260 M 47.501055 1.077143 20.21772 M 0.0 **** 0.0
2261 O 44.194654 18.057455 10.265705 O 0.0 **** 0.0
2262 H 43.278323 17.837403 10.433468 H 0.0 **** 0.0
2263 H 44.506692 18.430528 11.090131 H 0.0 **** 0.0
2264 M 44.117297 18.077043 10.392718 M 0.0 **** 0.0
2265 O 35.300942 42.755459 21.751728 O 0.0 **** 0.0
2266 H 34.511965 42.531533 21.258169 H 0.0 **** 0.0
2267 H 35.788066 41.93364 21.811324 H 0.0 **** 0.0
2268 M 35.262301 42.62159 21.696175 M 0.0 **** 0.0
2269 O 10.38277 9.423449 0.921603 O 0.0 **** 0.0
2270 H 10.624589 9.509061 -0.000581 H 0.0 **** 0.0
2271 H 11.200657 9.564996 1.398316 H 0.0 **** 0.0
2272 M 10.518426 9.452528 0.864577 M 0.0 **** 0.0
2273 O 18.689021 11.321659 19.638451 O 0.0 **** 0.0
2274 H 18.913957 12.244543 19.756424 H 0.0 **** 0.0
2275 H 17.736714 11.317194 19.541909 H 0.0 **** 0.0
2276 M 18.595909 11.439228 19.641195 M 0.0 **** 0.0
2277 O 9.653173 19.323929 21.704057 O 0.0 **** 0.0
2278 H 9.089715 20.057433 21.45765 H 0.0 **** 0.0
2279 H 10.436972 19.735227 22.068368 H 0.0 **** 0.0
2280 M 9.681379 19.470478 21.71915 M 0.0 **** 0.0
2281 O 10.234661 38.706819 0.620237 O 0.0 **** 0.0
2282 H 10.667455 39.560396 0.602197 H 0.0 **** 0.0
2283 H 9.299675 38.911535 0.6093 H 0.0 **** 0.0
2284 M 10.170374 38.842294 0.616528 M 0.0 **** 0.0
2285 O 6.724001 41.223196 19.083112 O 0.0 **** 0.0
2286 H 6.10686 41.954743 19.068782 H 0.0 **** 0.0
2287 H 7.586142 41.637249 19.121862 H 0.0 **** 0.0
2288 M 6.755364 41.369847 19.086238 M 0.0 **** 0.0
2289 O 15.97459 32.265841 46.74809 O 0.0 **** 0.0
2290 H 15.049431 32.311486 46.989389 H 0.0 **** 0.0
2291 H 16.174697 33.134365 46.399019 H 0.0 **** 0.0
2292 M 15.881774 32.382866 46.734294 M 0.0 **** 0.0
2293 O 40.135442 12.040707 11.772848 O 0.0 **** 0.0
2294 H 39.345896 12.154569 12.301886 H 0.0 **** 0.0
2295 H 40.065805 12.708794 11.090911 H 0.0 **** 0.0
2296 M 40.025456 12.140806 11.753275 M 0.0 **** 0.0
2297 O 8.382212 38.915615 6.424857 O 0.0 **** 0.0
2298 H 8.998352 38.237975 6.146642 H 0.0 **** 0.0
2299 H 8.896129 39.723147 6.421792 H 0.0 **** 0.0
2300 M 8.526873 38.932243 6.38885 M 0.0 **** 0.0
2301 O 14.03598 10.257327 32.78297 O 0.0 **** 0.0
2302 H 14.782769 10.090124 33.357929 H 0.0 **** 0.0
2303 H 14.080088 9.563987 32.124515 H 0.0 **** 0.0
2304 M 14.137225 10.147167 32.772282 M 0.0 **** 0.0
2305 O 39.086338 7.213334 24.182576 O 0.0 **** 0.0
2306 H 38.300004 6.723465 24.423275 H 0.0 **** 0.0
2307 H 39.783535 6.557578 24.171262 H 0.0 **** 0.0
2308 M 39.074927 7.06668 24.21194 M 0.0 **** 0.0
2309 O 21.868902 1.837449 6.813751 O 0.0 **** 0.0
2310 H 21.085821 2.361637 6.981799 H 0.0 **** 0.0
2311 H 21.628526 0.952322 7.087607 H 0.0 **** 0.0
2312 M 21.737887 1.791244 6.87032 M 0.0 **** 0.0
2313 O 17.866449 16.962945 20.77638 O 0.0 **** 0.0
2314 H 18.38905 16.679327 20.026262 H 0.0 **** 0.0
2315 H 18.251251 17.800683 21.033965 H 0.0 **** 0.0
2316 M 17.982608 17.033879 20.71333 M 0.0 **** 0.0
2317 O 20.496213 29.611303 43.489212 O 0.0 **** 0.0
2318 H 20.428887 30.106756 44.305436 H 0.0 **** 0.0
2319 H 21.352599 29.849274 43.133962 H 0.0 **** 0.0
2320 M 20.597223 29.705191 43.548222 M 0.0 **** 0.0
2321 O 17.497259 25.984119 35.446633 O 0.0 **** 0.0
2322 H 17.126229 26.832583 35.204404 H 0.0 **** 0.0
2323 H 16.736169 25.429185 35.616983 H 0.0 **** 0.0
2324 M 17.352333 26.021695 35.437432 M 0.0 **** 0.0
2325 O 16.043653 37.093291 23.709778 O 0.0 **** 0.0
2326 H 15.124821 37.244633 23.931301 H 0.0 **** 0.0
2327 H 16.014323 36.562185 22.913979 H 0.0 **** 0.0
2328 M 15.922276 37.044676 23.636263 M 0.0 **** 0.0
2329 O 8.858023 39.930614 9.274476 O 0.0 **** 0.0
2330 H 9.68107 39.935074 9.763149 H 0.0 **** 0.0
2331 H 8.943606 39.195889 8.666953 H 0.0 **** 0.0
2332 M 8.974339 39.837131 9.259262 M 0.0 **** 0.0
2333 O 37.793524 37.156346 7.172808 O 0.0 **** 0.0
2334 H 37.8186 36.324106 6.700604 H 0.0 **** 0.0
2335 H 38.442222 37.703286 6.729777 H 0.0 **** 0.0
2336 M 37.879775 37.119824 7.055646 M 0.0 **** 0.0
2337 O 3.706926 44.052971 19.939279 O 0.0 **** 0.0
2338 H 3.952324 43.843666 20.840501 H 0.0 **** 0.0
2339 H 4.495082 43.87097 19.427503 H 0.0 **** 0.0
2340 M 3.839234 44.002879 19.989133 M 0.0 **** 0.0
2341 O 38.231101 21.98102 37.457219 O 0.0 **** 0.0
2342 H 38.297801 21.225139 38.040677 H 0.0 **** 0.0
2343 H 37.326387 21.964149 37.14507 H 0.0 **** 0.0
2344 M 38.123824 21.882098 37.49195 M 0.0 **** 0.0
2345 O 33.091158 37.796905 21.537376 O 0.0 **** 0.0
2346 H 33.500301 37.535301 20.712516 H 0.0 **** 0.0
2347 H 32.518702 37.064093 21.764334 H 0.0 **** 0.0
2348 M 33.070252 37.669607 21.460837 M 0.0 **** 0.0
2349 O 12.334852 12.799281 38.357573 O 0.0 **** 0.0
2350 H 12.428518 12.589085 39.286698 H 0.0 **** 0.0
2351 H 13.191511 13.140831 38.10124 H 0.0 **** 0.0
2352 M 12.456505 12.816096 38.443699 M 0.0 **** 0.0
2353 O 10.936678 25.199041 37.670954 O 0.0 **** 0.0
2354 H 11.884678 25.24666 37.794481 H 0.0 **** 0.0
2355 H 10.606766 24.824323 38.487638 H 0.0 **** 0.0
2356 M 11.015801 25.157168 37.791313 M 0.0 **** 0.0
2357 O 42.686201 14.217217 21.798799 O 0.0 **** 0.0
2358 H 43.27588 14.906583 22.104221 H 0.0 **** 0.0
2359 H 42.472426 14.465337 20.899374 H 0.0 **** 0.0
2360 M 42.734322 14.337227 21.722759 M 0.0 **** 0.0
2361 O 43.020038 34.709645 10.067537 O 0.0 **** 0.0
2362 H 43.669045 34.466047 10.727596 H 0.0 **** 0.0
2363 H 42.176324 34.537678 10.485633 H 0.0 **** 0.0
2364 M 42.995113 34.656448 10.205554 M 0.0 **** 0.0
2365 O 41.278182 37.482552 44.838085 O 0.0 **** 0.0
2366 H 41.937833 36.986137 45.322504 H 0.0 **** 0.0
2367 H 41.089157 36.944165 44.069555 H 0.0 **** 0.0
2368 M 41.338428 37.350084 44.801715 M 0.0 **** 0.0
2369 O 37.781128 23.218748 32.442645 O 0.0 **** 0.0
2370 H 38.645272 23.071005 32.826907 H 0.0 **** 0.0
2371 H 37.172532 22.803812 33.053929 H 0.0 **** 0.0
2372 M 37.813842 23.146718 32.570088 M 0.0 **** 0.0
2373 O 21.976043 15.552144 39.266818 O 0.0 **** 0.0
2374 H 21.036226 15.605503 39.440384 H 0.0 **** 0.0
2375 H 22.217611 16.433004 38.980532 H 0.0 **** 0.0
2376 M 21.886658 15.671736 39.252388 M 0.0 **** 0.0
2377 O 3.474269 8.29315 4.227812 O 0.0 **** 0.0
2378 H 3.383722 9.245458 4.261581 H 0.0 **** 0.0
2379 H 3.371888 8.009975 5.136415 H 0.0 **** 0.0
2380 M 3.449572 8.378807 4.348448 M 0.0 **** 0.0
2381 O 36.673883 42.809537 36.109097 O 0.0 **** 0.0
2382 H 35.896218 42.252495 36.074882 H 0.0 **** 0.0
2383 H 37.368709 42.275562 35.723979 H 0.0 **** 0.0
2384 M 36.663278 42.669873 36.055417 M 0.0 **** 0.0
2385 O 32.363333 30.648107 27.731614 O 0.0 **** 0.0
2386 H 32.039348 31.53731 27.87507 H 0.0 **** 0.0
2387 H 33.198713 30.767047 27.279704 H 0.0 **** 0.0
2388 M 32.428798 30.777162 27.692128 M 0.0 **** 0.0
2389 O 14.550436 20.719159 41.639136 O 0.0 **** 0.0
2390 H 15.208399 20.296462 42.191078 H 0.0 **** 0.0
2391 H 13.712597 20.423545 41.995321 H 0.0 **** 0.0
2392 M 14.527409 20.627206 41.755388 M 0.0 **** 0.0
2393 O 14.784209 18.8847 2.539263 O 0.0 **** 0.0
2394 H 14.241681 18.74355 3.315129 H 0.0 **** 0.0
2395 H 15.05245 19.801693 2.597578 H 0.0 **** 0.0
2396 M 14.749097 18.984018 2.646048 M 0.0 **** 0.0
2397 O 9.654929 2.530469 26.577289 O 0.0 **** 0.0
2398 H 9.753591 3.040931 27.380983 H 0.0 **** 0.0
2399 H 9.004603 3.011664 26.065669 H 0.0 **** 0.0
2400 M 9.584309 2.657414 26.614678 M 0.0 **** 0.0
2401 O 10.974613 8.573656 22.67684 O 0.0 **** 0.0
2402 H 11.748902 8.04626 22.480478 H 0.0 **** 0.0
2403 H 10.244568 8.073006 22.31268 H 0.0 **** 0.0
2404 M 10.980277 8.442053 22.605086 M 0.0 **** 0.0
2405 O 19.382545 19.231007 13.805108 O 0.0 **** 0.0
2406 H 18.62833 19.278703 13.217644 H 0.0 **** 0.0
2407 H 19.619723 18.303727 13.816356 H 0.0 **** 0.0
2408 M 19.316358 19.118409 13.731345 M 0.0 **** 0.0
2409 O 2.852726 43.061041 14.096959 O 0.0 **** 0.0
2410 H 2.463951 43.020515 13.223208 H 0.0 **** 0.0
2411 H 3.580288 43.676587 14.00759 H 0.0 **** 0.0
2412 M 2.896095 43.134651 13.973667 M 0.0 **** 0.0
2413 O 30.232769 42.957523 39.046057 O 0.0 **** 0.0
2414 H 29.910649 43.525052 39.746326 H 0.0 **** 0.0
2415 H 30.972427 42.491532 39.435913 H 0.0 **** 0.0
2416 M 30.28622 42.970521 39.185607 M 0.0 **** 0.0
2417 O 21.527264 31.262927 33.863797 O 0.0 **** 0.0
2418 H 22.334543 31.543636 34.294763 H 0.0 **** 0.0
2419 H 21.775365 30.476005 33.378587 H 0.0 **** 0.0
2420 M 21.662366 31.198125 33.856853 M 0.0 **** 0.0
2421 O 6.584877 22.974077 1.172243 O 0.0 **** 0.0
2422 H 6.625366 23.32647 2.061292 H 0.0 **** 0.0
2423 H 7.280589 22.317322 1.142491 H 0.0 **** 0.0
2424 M 6.67912 22.935115 1.282243 M 0.0 **** 0.0
2425 O 1.090133 5.904062 19.367507 O 0.0 **** 0.0
2426 H 1.31418 6.165801 20.26055 H 0.0 **** 0.0
2427 H 0.13781 5.808078 19.377327 H 0.0 **** 0.0
2428 M 0.996904 5.925281 19.483085 M 0.0 **** 0.0
2429 O 26.241956 12.201631 45.485125 O 0.0 **** 0.0
2430 H 25.888562 11.600124 46.140511 H 0.0 **** 0.0
2431 H 25.861408 11.905984 44.658079 H 0.0 **** 0.0
2432 M 26.148002 12.086784 45.46315 M 0.0 **** 0.0
2433 O 17.4793 44.479159 19.600723 O 0.0 **** 0.0
2434 H 17.272953 45.397071 19.777037 H 0.0 **** 0.0
2435 H 16.626429 44.056852 19.498267 H 0.0 **** 0.0
2436 M 17.343707 44.542602 19.610178 M 0.0 **** 0.0
2437 O 21.099733 24.165985 18.410881 O 0.0 **** 0.0
2438 H 21.729459 24.88398 18.475357 H 0.0 **** 0.0
2439 H 20.270383 24.547596 18.698597 H 0.0 **** 0.0
2440 M 21.074179 24.306748 18.455966 M 0.0 **** 0.0
2441 O 18.786019 14.559885 7.05419 O 0.0 **** 0.0
2442 H 17.870564 14.633989 6.784598 H 0.0 **** 0.0
2443 H 19.071717 13.716025 6.704182 H 0.0 **** 0.0
2444 M 18.705402 14.461347 6.974873 M 0.0 **** 0.0
2445 O 33.959517 29.104048 8.389189 O 0.0 **** 0.0
2446 H 34.032026 28.186485 8.651961 H 0.0 **** 0.0
2447 H 33.090634 29.172415 7.993467 H 0.0 **** 0.0
2448 M 33.857572 28.99534 8.37217 M 0.0 **** 0.0
2449 O 12.336023 34.479712 19.709983 O 0.0 **** 0.0
2450 H 13.012991 35.075345 20.031175 H 0.0 **** 0.0
2451 H 12.819068 33.792616 19.250858 H 0.0 **** 0.0
2452 M 12.484519 34.468004 19.692326 M 0.0 **** 0.0
2453 O 45.106162 11.79585 11.661877 O 0.0 **** 0.0
2454 H 44.754151 10.917119 11.519929 H 0.0 **** 0.0
2455 H 44.338584 12.333088 11.857907 H 0.0 **** 0.0
2456 M 44.96284 11.752134 11.6688 M 0.0 **** 0.0
2457 O 20.027371 22.834447 29.997045 O 0.0 **** 0.0
2458 H 19.902745 22.772161 29.050041 H 0.0 **** 0.0
2459 H 20.556707 22.06882 30.220314 H 0.0 **** 0.0
2460 M 20.079179 22.728463 29.904398 M 0.0 **** 0.0
2461 O 40.320368 15.489775 9.243201 O 0.0 **** 0.0
2462 H 40.454537 16.257501 9.79892 H 0.0 **** 0.0
2463 H 40.136269 15.850522 8.375907 H 0.0 **** 0.0
2464 M 40.313976 15.634234 9.203315 M 0.0 **** 0.0
2465 O 40.51319 11.108536 21.919872 O 0.0 **** 0.0
2466 H 40.265036 10.415341 22.531533 H 0.0 **** 0.0
2467 H 41.350269 10.819616 21.556482 H 0.0 **** 0.0
2468 M 40.588579 10.982813 21.951654 M 0.0 **** 0.0
2469 O 35.383263 3.054019 46.060131 O 0.0 **** 0.0
2470 H 35.298277 2.748752 46.963358 H 0.0 **** 0.0
2471 H 35.395101 4.008623 46.129546 H 0.0 **** 0.0
2472 M 35.373899 3.137142 46.184642 M 0.0 **** 0.0
2473 O 4.54254 28.276187 24.597973 O 0.0 **** 0.0
2474 H 3.937646 29.009996 24.489085 H 0.0 **** 0.0
2475 H 5.397315 28.686995 24.727689 H 0.0 **** 0.0
2476 M 4.574528 28.422713 24.600639 M 0.0 **** 0.0
2477 O 22.568624 41.353645 32.430058 O 0.0 **** 0.0
2478 H 21.955116 42.08821 32.445903 H 0.0 **** 0.0
2479 H 22.044843 40.609882 32.132233 H 0.0 **** 0.0
2480 M 22.423036 41.352468 32.393961 M 0.0 **** 0.0
2481 O 28.792956 1.478565 37.3339 O 0.0 **** 0.0
2482 H 29.597639 1.989702 37.247573 H 0.0 **** 0.0
2483 H 28.994353 0.641449 36.915684 H 0.0 **** 0.0
2484 M 28.921747 1.436836 37.269312 M 0.0 **** 0.0
2485 O 26.650481 15.325721 35.907592 O 0.0 **** 0.0
2486 H 26.655135 16.21435 36.263323 H 0.0 **** 0.0
2487 H 25.82794 14.947229 36.218074 H 0.0 **** 0.0
2488 M 26.545781 15.391025 35.992876 M 0.0 **** 0.0
2489 O 37.950339 5.771611 12.618356 O 0.0 **** 0.0
2490 H 37.014723 5.575405 12.569829 H 0.0 **** 0.0
2491 H 38.366433 5.088196 12.092962 H 0.0 **** 0.0
2492 M 37.883834 5.659009 12.544887 M 0.0 **** 0.0
2493 O 34.31813 21.647477 34.09596 O 0.0 **** 0.0
2494 H 33.58233 22.20948 34.338815 H 0.0 **** 0.0
2495 H 35.018013 22.256658 33.860819 H 0.0 **** 0.0
2496 M 34.313532 21.797403 34.096948 M 0.0 **** 0.0
2497 O 13.822128 26.009961 44.696735 O 0.0 **** 0.0
2498 H 14.180776 25.186055 45.026551 H 0.0 **** 0.0
2499 H 14.587773 26.568822 44.563729 H 0.0 **** 0.0
2500 M 13.966051 25.976032 44.721929 M 0.0 **** 0.0
2501 O 18.848572 37.05567 22.778818 O 0.0 **** 0.0
2502 H 18.199485 36.352168 22.778534 H 0.0 **** 0.0
2503 H 18.359256 37.833565 23.046547 H 0.0 **** 0.0
2504 M 18.702842 37.065193 22.813054 M 0.0 **** 0.0
2505 O 28.519868 43.451656 13.619627 O 0.0 **** 0.0
2506 H 27.943231 42.870517 14.115608 H 0.0 **** 0.0
2507 H 28.693683 42.979501 12.805326 H 0.0 **** 0.0
2508 M 28.468301 43.316821 13.578878 M 0.0 **** 0.0
2509 O 19.390327 30.58131 34.992378 O 0.0 **** 0.0
2510 H 18.791117 30.845783 34.294359 H 0.0 **** 0.0
2511 H 19.534991 29.646931 34.843264 H 0.0 **** 0.0
2512 M 19.332139 30.495554 34.883935 M 0.0 **** 0.0
2513 O 12.440064 36.539688 13.951194 O 0.0 **** 0.0
2514 H 13.294935 36.941922 13.797466 H 0.0 **** 0.0
2515 H 12.642302 35.678528 14.316888 H 0.0 **** 0.0
2516 M 12.575387 36.480939 13.978328 M 0.0 **** 0.0
2517 O 38.172906 20.938685 17.124007 O 0.0 **** 0.0
2518 H 37.813594 21.538685 16.47046 H 0.0 **** 0.0
2519 H 37.957777 21.342688 17.964679 H 0.0 **** 0.0
2520 M 38.099371 21.06721 17.147961 M 0.0 **** 0.0
2521 O 10.719356 0.719524 19.727212 O 0.0 **** 0.0
2522 H 10.124277 -0.000108 19.516878 H 0.0 **** 0.0
2523 H 10.366432 1.470193 19.249541 H 0.0 **** 0.0
2524 M 10.598 0.723497 19.639139 M 0.0 **** 0.0
2525 O 0.349744 31.179301 2.831725 O 0.0 **** 0.0
2526 H 0.943399 30.621715 2.328833 H 0.0 **** 0.0
2527 H 0.002189 30.605469 3.514477 H 0.0 **** 0.0
2528 M 0.381248 31.034465 2.854749 M 0.0 **** 0.0
2529 O 18.024222 37.149163 12.207625 O 0.0 **** 0.0
2530 H 17.484563 36.543668 12.715929 H 0.0 **** 0.0
2531 H 18.682892 36.592653 11.792078 H 0.0 **** 0.0
2532 M 18.039457 37.000412 12.219499 M 0.0 **** 0.0
2533 O 8.013001 34.907941 22.341078 O 0.0 **** 0.0
2534 H 8.655098 35.471522 21.909434 H 0.0 **** 0.0
2535 H 7.256612 34.912841 21.754494 H 0.0 **** 0.0
2536 M 7.99837 34.980714 22.210732 M 0.0 **** 0.0
2537 O 8.719533 5.05642 38.584425 O 0.0 **** 0.0
2538 H 9.258655 4.718371 37.869373 H 0.0 **** 0.0
2539 H 8.747608 6.007198 38.477361 H 0.0 **** 0.0
2540 M 8.792141 5.134857 38.479184 M 0.0 **** 0.0
2541 O 45.840612 7.737093 15.882976 O 0.0 **** 0.0
2542 H 45.448207 8.282217 15.201003 H 0.0 **** 0.0
2543 H 46.692857 8.139231 16.050882 H 0.0 **** 0.0
2544 M 45.899477 7.858354 15.817169 M 0.0 **** 0.0
2545 O 43.014434 32.172807 39.73592 O 0.0 **** 0.0
2546 H 42.506974 32.291727 40.538772 H 0.0 **** 0.0
2547 H 42.895386 32.990857 39.253374 H 0.0 **** 0.0
2548 M 42.934233 32.292751 39.776923 M 0.0 **** 0.0
2549 O 28.122807 18.202862 29.455989 O 0.0 **** 0.0
2550 H 27.329286 18.23524 28.921662 H 0.0 **** 0.0
2551 H 28.836485 18.133833 28.821853 H 0.0 **** 0.0
2552 M 28.112586 18.19817 29.306411 M 0.0 **** 0.0
2553 O 33.835896 17.668609 47.68145 O 0.0 **** 0.0
2554 H 32.948046 17.645955 48.038436 H 0.0 **** 0.0
2555 H 34.213473 16.822946 47.923353 H 0.0 **** 0.0
2556 M 33.770575 17.557454 47.758115 M 0.0 **** 0.0
2557 O 44.775007 37.171591 3.377573 O 0.0 **** 0.0
2558 H 44.127977 37.8748 3.433068 H 0.0 **** 0.0
2559 H 45.619617 37.621993 3.378349 H 0.0 **** 0.0
2560 M 44.8003 37.319268 3.384777 M 0.0 **** 0.0
2561 O 35.873528 14.250527 36.674385 O 0.0 **** 0.0
2562 H 36.74492 14.320469 36.284499 H 0.0 **** 0.0
2563 H 35.668406 15.139314 36.964575 H 0.0 **** 0.0
2564 M 35.958819 14.373256 36.661623 M 0.0 **** 0.0
2565 O 32.73529 15.701758 9.53161 O 0.0 **** 0.0
2566 H 33.670687 15.500337 9.55791 H 0.0 **** 0.0
2567 H 32.309128 14.85032 9.433292 H 0.0 **** 0.0
2568 M 32.800479 15.566979 9.522391 M 0.0 **** 0.0
2569 O 36.916918 46.026117 19.235918 O 0.0 **** 0.0
2570 H 37.242391 45.157166 19.470905 H 0.0 **** 0.0
2571 H 37.643245 46.43534 18.765582 H 0.0 **** 0.0
2572 M 37.051562 45.967266 19.20579 M 0.0 **** 0.0
2573 O 17.198854 26.803642 0.053995 O 0.0 **** 0.0
2574 H 16.265376 27.012 0.01613 H 0.0 **** 0.0
2575 H 17.636495 27.653782 0.00972 H 0.0 **** 0.0
2576 M 17.135381 26.939143 0.04348 M 0.0 **** 0.0
2577 O 8.910272 4.765589 22.581705 O 0.0 **** 0.0
2578 H 9.629933 4.341522 22.114282 H 0.0 **** 0.0
2579 H 8.866947 5.645735 22.207947 H 0.0 **** 0.0
2580 M 8.996851 4.823973 22.474023 M 0.0 **** 0.0
2581 O 37.318971 38.819252 5.184816 O 0.0 **** 0.0
2582 H 37.645922 38.885913 4.287661 H 0.0 **** 0.0
2583 H 36.370685 38.73121 5.088741 H 0.0 **** 0.0
2584 M 37.239432 38.816515 5.05767 M 0.0 **** 0.0
2585 O 25.321805 5.015247 8.037915 O 0.0 **** 0.0
2586 H 24.406655 5.166257 7.801428 H 0.0 **** 0.0
2587 H 25.281237 4.418494 8.785223 H 0.0 **** 0.0
2588 M 25.199461 4.958187 8.103307 M 0.0 **** 0.0
2589 O 6.08198 23.074751 29.705612 O 0.0 **** 0.0
2590 H 5.305448 23.113659 29.147299 H 0.0 **** 0.0
2591 H 6.655614 23.762212 29.36713 H 0.0 **** 0.0
2592 M 6.056006 23.167735 29.590811 M 0.0 **** 0.0
2593 O 1.709734 39.472613 25.416592 O 0.0 **** 0.0
2594 H 2.405688 40.085939 25.652618 H 0.0 **** 0.0
2595 H 2.006976 38.62931 25.75823 H 0.0 **** 0.0
2596 M 1.836876 39.443173 25.49054 M 0.0 **** 0.0
2597 O 4.237838 27.01851 16.127788 O 0.0 **** 0.0
2598 H 3.967056 27.649692 16.794508 H 0.0 **** 0.0
2599 H 4.282106 26.182796 16.592386 H 0.0 **** 0.0
2600 M 4.208841 26.992328 16.272611 M 0.0 **** 0.0
2601 O 30.074889 45.023636 21.814668 O 0.0 **** 0.0
2602 H 30.061454 45.929776 21.506515 H 0.0 **** 0.0
2603 H 30.974101 44.884502 22.111801 H 0.0 **** 0.0
2604 M 30.188279 45.121823 21.813257 M 0.0 **** 0.0
2605 O 38.618132 10.290363 33.296925 O 0.0 **** 0.0
2606 H 39.285419 9.604171 33.30673 H 0.0 **** 0.0
2607 H 38.568228 10.563517 32.380888 H 0.0 **** 0.0
2608 M 38.697165 10.237489 33.180916 M 0.0 **** 0.0
2609 O 10.221063 19.058856 32.278358 O 0.0 **** 0.0
2610 H 10.257621 18.287522 32.843986 H 0.0 **** 0.0
2611 H 9.75859 18.760468 31.495215 H 0.0 **** 0.0
2612 M 10.166541 18.921918 32.250514 M 0.0 **** 0.0
2613 O 39.504327 10.06531 35.442797 O 0.0 **** 0.0
2614 H 38.845127 10.759151 35.426375 H 0.0 **** 0.0
2615 H 40.341195 10.529681 35.458285 H 0.0 **** 0.0
2616 M 39.527071 10.213576 35.442677 M 0.0 **** 0.0
2617 O 8.47041 45.258926 10.148204 O 0.0 **** 0.0
2618 H 7.713348 44.688497 10.015176 H 0.0 **** 0.0
2619 H 9.215819 44.660561 10.198734 H 0.0 **** 0.0
2620 M 8.468918 45.109306 10.137643 M 0.0 **** 0.0
2621 O 46.474629 6.884544 3.048898 O 0.0 **** 0.0
2622 H 46.453927 7.693793 2.538099 H 0.0 **** 0.0
2623 H 46.92944 7.122315 3.856884 H 0.0 **** 0.0
2624 M 46.5302 7.018576 3.086942 M 0.0 **** 0.0
2625 O 37.331908 7.919563 31.085078 O 0.0 **** 0.0
2626 H 37.721566 8.686425 31.504981 H 0.0 **** 0.0
2627 H 38.050598 7.290747 31.019476 H 0.0 **** 0.0
2628 M 37.473791 7.937235 31.130433 M 0.0 **** 0.0
2629 O 35.669955 27.819727 5.409139 O 0.0 **** 0.0
2630 H 35.48966 26.879788 5.424541 H 0.0 **** 0.0
2631 H 36.613464 27.885558 5.556404 H 0.0 **** 0.0
2632 M 35.767656 27.70783 5.429962 M 0.0 **** 0.0
2633 O 41.711071 25.206579 4.506391 O 0.0 **** 0.0
2634 H 42.174064 25.596576 3.764928 H 0.0 **** 0.0
2635 H 41.457679 25.952383 5.050264 H 0.0 **** 0.0
2636 M 41.737903 25.351975 4.481097 M 0.0 **** 0.0
2637 O 16.899826 25.704231 42.662826 O 0.0 **** 0.0
2638 H 17.262202 24.859656 42.930416 H 0.0 **** 0.0
2639 H 16.081763 25.780806 43.153883 H 0.0 **** 0.0
2640 M 16.841492 25.605917 42.759942 M 0.0 **** 0.0
2641 O 7.154508 39.671219 26.07769 O 0.0 **** 0.0
2642 H 6.932091 39.130288 25.31996 H 0.0 **** 0.0
2643 H 8.071509 39.909551 25.941547 H 0.0 **** 0.0
2644 M 7.243423 39.632482 25.963263 M 0.0 **** 0.0
2645 O 39.997055 40.696013 11.78138 O 0.0 **** 0.0
2646 H 40.481294 40.402447 12.553105 H 0.0 **** 0.0
2647 H 39.078404 40.665543 12.048552 H 0.0 **** 0.0
2648 M 39.941445 40.654532 11.914372 M 0.0 **** 0.0
2649 O 24.060025 15.720274 34.322032 O 0.0 **** 0.0
2650 H 23.697481 15.409339 35.151556 H 0.0 **** 0.0
2651 H 24.498197 16.541699 34.544507 H 0.0 **** 0.0
2652 M 24.069706 15.785623 34.456701 M 0.0 **** 0.0
2653 O 32.783568 35.149602 9.987074 O 0.0 **** 0.0
2654 H 32.771773 35.572489 9.128438 H 0.0 **** 0.0
2655 H 33.464454 35.613914 10.473937 H 0.0 **** 0.0
2656 M 32.86922 35.263175 9.939482 M 0.0 **** 0.0
2657 O 7.504748 1.919819 29.882548 O 0.0 **** 0.0
2658 H 7.18652 2.770036 30.186011 H 0.0 **** 0.0
2659 H 8.410879 2.082363 29.620374 H 0.0 **** 0.0
2660 M 7.580007 2.049465 29.887834 M 0.0 **** 0.0
2661 O 40.754034 42.833685 30.861789 O 0.0 **** 0.0
2662 H 40.832686 43.781192 30.972568 H 0.0 **** 0.0
2663 H 41.626789 42.550693 30.588946 H 0.0 **** 0.0
2664 M 40.875826 42.918751 30.841043 M 0.0 **** 0.0
2665 O 45.912484 14.225018 38.395134 O 0.0 **** 0.0
2666 H 46.561891 14.654294 37.838158 H 0.0 **** 0.0
2667 H 45.080104 14.362351 37.942902 H 0.0 **** 0.0
2668 M 45.889061 14.297551 38.265943 M 0.0 **** 0.0
2669 O 9.500508 33.751619 29.091805 O 0.0 **** 0.0
2670 H 8.589768 33.8376 28.810044 H 0.0 **** 0.0
2671 H 9.695797 34.580544 29.528811 H 0.0 **** 0.0
2672 M 9.408921 33.868739 29.111678 M 0.0 **** 0.0
2673 O 5.497339 7.365156 30.840547 O 0.0 **** 0.0
2674 H 4.628555 7.022631 30.630502 H 0.0 **** 0.0
2675 H 5.762704 6.882631 31.623477 H 0.0 **** 0.0
2676 M 5.420094 7.259539 30.913884 M 0.0 **** 0.0
2677 O 27.938261 25.003103 35.526186 O 0.0 **** 0.0
2678 H 27.297218 25.682463 35.735383 H 0.0 **** 0.0
2679 H 28.543339 25.007528 36.267867 H 0.0 **** 0.0
2680 M 27.933657 25.090636 35.64791 M 0.0 **** 0.0
2681 O 1.86846 28.097451 26.366021 O 0.0 **** 0.0
2682 H 2.815201 28.197732 26.266748 H 0.0 **** 0.0
2683 H 1.637597 28.692458 27.079391 H 0.0 **** 0.0
2684 M 1.960101 28.186456 26.444633 M 0.0 **** 0.0
2685 O 28.864627 6.043974 34.264924 O 0.0 **** 0.0
2686 H 29.806605 5.965168 34.114273 H 0.0 **** 0.0
2687 H 28.680387 5.417978 34.965219 H 0.0 **** 0.0
2688 M 28.961627 5.95375 34.335285 M 0.0 **** 0.0
2689 O 46.819716 8.087629 6.548858 O 0.0 **** 0.0
2690 H 45.921982 8.387866 6.406875 H 0.0 **** 0.0
2691 H 47.322563 8.890594 6.685316 H 0.0 **** 0.0
2692 M 46.769165 8.228852 6.548151 M 0.0 **** 0.0
2693 O 14.879033 21.80272 27.516825 O 0.0 **** 0.0
2694 H 14.932413 20.866318 27.325694 H 0.0 **** 0.0
2695 H 14.176553 21.87613 28.16286 H 0.0 **** 0.0
2696 M 14.79594 21.692246 27.575059 M 0.0 **** 0.0
2697 O 27.483253 35.827824 26.141906 O 0.0 **** 0.0
2698 H 28.102954 36.556836 26.114662 H 0.0 **** 0.0
2699 H 26.633065 36.241048 26.292421 H 0.0 **** 0.0
2700 M 27.453748 35.974045 26.157686 M 0.0 **** 0.0
2701 O 11.698962 14.054724 11.507397 O 0.0 **** 0.0
2702 H 12.526371 13.573953 11.48543 H 0.0 **** 0.0
2703 H 11.026365 13.374007 11.528964 H 0.0 **** 0.0
2704 M 11.71878 13.906039 11.507346 M 0.0 **** 0.0
2705 O 20.7957 15.411043 17.161131 O 0.0 **** 0.0
2706 H 20.957869 14.467704 17.154608 H 0.0 **** 0.0
2707 H 21.667947 15.804317 17.188506 H 0.0 **** 0.0
2708 M 20.928118 15.340627 17.1638 M 0.0 **** 0.0
2709 O 35.532118 34.56262 9.174948 O 0.0 **** 0.0
2710 H 35.130516 34.263893 9.990857 H 0.0 **** 0.0
2711 H 34.796136 34.859868 8.639969 H 0.0 **** 0.0
2712 M 35.386493 34.562431 9.210911 M 0.0 **** 0.0
2713 O 16.944326 30.692034 3.180321 O 0.0 **** 0.0
2714 H 17.104231 29.748465 3.198664 H 0.0 **** 0.0
2715 H 17.817739 31.083624 3.186344 H 0.0 **** 0.0
2716 M 17.076604 30.621374 3.18344 M 0.0 **** 0.0
2717 O 43.05411 39.277009 44.071703 O 0.0 **** 0.0
2718 H 43.443172 38.691174 43.422352 H 0.0 **** 0.0
2719 H 42.190677 39.488884 43.716988 H 0.0 **** 0.0
2720 M 42.993384 39.229138 43.94317 M 0.0 **** 0.0
2721 O 35.664552 16.839644 35.062617 O 0.0 **** 0.0
2722 H 36.214286 16.056251 35.044819 H 0.0 **** 0.0
2723 H 34.808902 16.539403 34.756107 H 0.0 **** 0.0
2724 M 35.625391 16.700925 35.021102 M 0.0 **** 0.0
2725 O 17.568857 18.849455 31.791246 O 0.0 **** 0.0
2726 H 17.944563 19.55292 32.320596 H 0.0 **** 0.0
2727 H 17.479668 18.11423 32.397644 H 0.0 **** 0.0
2728 M 17.605535 18.84539 31.936636 M 0.0 **** 0.0
2729 O 40.265168 45.522365 2.174796 O 0.0 **** 0.0
2730 H 39.864999 44.745437 2.565278 H 0.0 **** 0.0
2731 H 40.721861 45.947611 2.900624 H 0.0 **** 0.0
2732 M 40.272404 45.477345 2.317698 M 0.0 **** 0.0
2733 O 37.350188 11.367686 30.593443 O 0.0 **** 0.0
2734 H 37.688265 10.521391 30.300667 H 0.0 **** 0.0
2735 H 36.433397 11.197955 30.810038 H 0.0 **** 0.0
2736 M 37.276105 11.237621 30.583691 M 0.0 **** 0.0
2737 O 28.292174 4.511638 24.088167 O 0.0 **** 0.0
2738 H 29.224121 4.503555 23.869906 H 0.0 **** 0.0
2739 H 27.921769 5.198323 23.533648 H 0.0 **** 0.0
2740 M 28.364059 4.598507 23.989242 M 0.0 **** 0.0
2741 O 31.198987 47.703548 17.424687 O 0.0 **** 0.0
2742 H 30.379908 47.431251 17.010932 H 0.0 **** 0.0
2743 H 31.821236 47.010415 17.204229 H 0.0 **** 0.0
2744 M 31.17379 47.579961 17.3435 M 0.0 **** 0.0
2745 O 12.955659 38.993452 15.229432 O 0.0 **** 0.0
2746 H 13.83259 38.647203 15.064103 H 0.0 **** 0.0
2747 H 12.41044 38.216617 15.353897 H 0.0 **** 0.0
2748 M 12.998123 38.849683 15.224201 M 0.0 **** 0.0
2749 O 32.841608 16.678804 14.03466 O 0.0 **** 0.0
2750 H 31.991702 17.118215 14.063058 H 0.0 **** 0.0
2751 H 33.223465 16.838829 14.897682 H 0.0 **** 0.0
2752 M 32.781692 16.755539 14.148773 M 0.0 **** 0.0
2753 O 25.852682 9.638275 17.652582 O 0.0 **** 0.0
2754 H 24.911786 9.579367 17.486826 H 0.0 **** 0.0
2755 H 26.258835 9.367457 16.82922 H 0.0 **** 0.0
2756 M 25.784228 9.596066 17.525962 M 0.0 **** 0.0
2757 O 6.267775 37.167833 31.241596 O 0.0 **** 0.0
2758 H 6.687566 37.998932 31.46358 H 0.0 **** 0.0
2759 H 5.673389 36.996548 31.972073 H 0.0 **** 0.0
2760 M 6.245425 37.252297 31.363523 M 0.0 **** 0.0
2761 O 8.067042 2.566829 17.666883 O 0.0 **** 0.0
2762 H 7.778115 1.678991 17.455946 H 0.0 **** 0.0
2763 H 8.565456 2.470567 18.478392 H 0.0 **** 0.0
2764 M 8.093859 2.440852 17.743764 M 0.0 **** 0.0
2765 O 11.612862 46.089559 14.718372 O 0.0 **** 0.0
2766 H 11.773179 45.147951 14.78082 H 0.0 **** 0.0
2767 H 12.474138 46.488385 14.842351 H 0.0 **** 0.0
2768 M 11.743639 46.020076 14.742237 M 0.0 **** 0.0
2769 O 12.860654 12.94538 8.417505 O 0.0 **** 0.0
2770 H 12.471831 12.881198 9.289815 H 0.0 **** 0.0
2771 H 12.158049 13.290047 7.866342 H 0.0 **** 0.0
2772 M 12.720937 12.981286 8.458616 M 0.0 **** 0.0
2773 O 22.418494 6.317393 7.550926 O 0.0 **** 0.0
2774 H 21.748688 5.635891 7.606993 H 0.0 **** 0.0
2775 H 21.924571 7.135746 7.500256 H 0.0 **** 0.0
2776 M 22.269522 6.334911 7.551617 M 0.0 **** 0.0
2777 O 3.127919 0.176372 35.621798 O 0.0 **** 0.0
2778 H 3.922218 0.359727 35.120102 H 0.0 **** 0.0
2779 H 2.413063 0.45723 35.050546 H 0.0 **** 0.0
2780 M 3.138088 0.235797 35.484447 M 0.0 **** 0.0
2781 O 11.969327 5.400011 41.088903 O 0.0 **** 0.0
2782 H 12.710936 4.795075 41.071637 H 0.0 **** 0.0
2783 H 11.211308 4.856618 40.87359 H 0.0 **** 0.0
2784 M 11.967226 5.25301 41.05913 M 0.0 **** 0.0
2785 O 7.726932 10.228533 12.824005 O 0.0 **** 0.0
2786 H 8.57697 10.568573 12.544655 H 0.0 **** 0.0
2787 H 7.118789 10.953112 12.677806 H 0.0 **** 0.0
2788 M 7.757898 10.364817 12.769529 M 0.0 **** 0.0
2789 O 21.349301 9.945313 6.195817 O 0.0 **** 0.0
2790 H 21.026499 10.72066 6.655018 H 0.0 **** 0.0
2791 H 22.035281 10.277561 5.61679 H 0.0 **** 0.0
2792 M 21.395793 10.087099 6.180478 M 0.0 **** 0.0
2793 O 17.384325 16.56333 22.889518 O 0.0 **** 0.0
2794 H 17.134131 15.647788 22.765369 H 0.0 **** 0.0
2795 H 18.340696 16.547915 22.926189 H 0.0 **** 0.0
2796 M 17.474725 16.444156 22.87832 M 0.0 **** 0.0
2797 O 28.898056 37.21509 3.797644 O 0.0 **** 0.0
2798 H 28.182423 37.529913 4.349898 H 0.0 **** 0.0
2799 H 29.689741 37.396528 4.304146 H 0.0 **** 0.0
2800 M 28.907791 37.278618 3.933178 M 0.0 **** 0.0
2801 O 23.041939 16.320587 41.028947 O 0.0 **** 0.0
2802 H 22.356858 16.984876 41.103872 H 0.0 **** 0.0
2803 H 23.860562 16.815867 41.056918 H 0.0 **** 0.0
2804 M 23.059034 16.469026 41.042119 M 0.0 **** 0.0
2805 O 41.486801 43.997122 9.328211 O 0.0 **** 0.0
2806 H 41.213133 43.079921 9.336995 H 0.0 **** 0.0
2807 H 42.437709 43.962856 9.224154 H 0.0 **** 0.0
2808 M 41.573496 43.875323 9.316015 M 0.0 **** 0.0
2809 O 20.818585 44.268154 11.608133 O 0.0 **** 0.0
2810 H 20.222017 43.52382 11.52875 H 0.0 **** 0.0
2811 H 21.692447 43.877718 11.595719 H 0.0 **** 0.0
2812 M 20.854082 44.122889 11.596382 M 0.0 **** 0.0
2813 O 9.945058 18.452907 17.316224 O 0.0 **** 0.0
2814 H 9.083312 18.104435 17.087772 H 0.0 **** 0.0
2815 H 10.493384 17.677542 17.436131 H 0.0 **** 0.0
2816 M 9.904937 18.309042 17.302329 M 0.0 **** 0.0
2817 O 14.223161 45.863656 1.838414 O 0.0 **** 0.0
2818 H 14.412849 45.82299 2.775747 H 0.0 **** 0.0
2819 H 13.616044 46.598146 1.748066 H 0.0 **** 0.0
2820 M 14.169725 45.952474 1.946839 M 0.0 **** 0.0
2821 O 27.404556 21.724041 0.728845 O 0.0 **** 0.0
2822 H 27.977647 21.724307 1.495523 H 0.0 **** 0.0
2823 H 26.746609 22.392238 0.9208 H 0.0 **** 0.0
2824 M 27.393693 21.809613 0.851562 M 0.0 **** 0.0
2825 O 16.142731 6.327333 4.646954 O 0.0 **** 0.0
2826 H 15.304256 6.37846 5.105837 H 0.0 **** 0.0
2827 H 16.697448 5.796998 5.219023 H 0.0 **** 0.0
2828 M 16.106406 6.265988 4.778929 M 0.0 **** 0.0
2829 O 13.84275 31.78304 34.773363 O 0.0 **** 0.0
2830 H 13.990127 30.873499 35.032676 H 0.0 **** 0.0
2831 H 13.137504 32.084594 35.346008 H 0.0 **** 0.0
2832 M 13.771336 31.70521 34.879864 M 0.0 **** 0.0
2833 O 23.166034 31.863453 0.654876 O 0.0 **** 0.0
2834 H 22.693576 31.578485 1.437056 H 0.0 **** 0.0
2835 H 22.946082 31.210484 -0.009564 H 0.0 **** 0.0
2836 M 23.077397 31.743386 0.669948 M 0.0 **** 0.0
2837 O 27.674406 30.435696 47.21543 O 0.0 **** 0.0
2838 H 28.237529 29.671425 47.337949 H 0.0 **** 0.0
2839 H 27.950971 30.805644 46.377051 H 0.0 **** 0.0
2840 M 27.781897 30.385217 47.123791 M 0.0 **** 0.0
2841 O 0.423078 42.998723 31.759946 O 0.0 **** 0.0
2842 H 0.541959 42.145244 32.176681 H 0.0 **** 0.0
2843 H 1.055445 43.569259 32.196785 H 0.0 **** 0.0
2844 M 0.519247 42.962503 31.869214 M 0.0 **** 0.0
2845 O 27.629233 34.708262 44.750663 O 0.0 **** 0.0
2846 H 26.833023 34.567638 45.263014 H 0.0 **** 0.0
2847 H 28.004484 35.513728 45.106529 H 0.0 **** 0.0
2848 M 27.575345 34.79337 44.861805 M 0.0 **** 0.0
2849 O 4.535389 20.167777 33.872379 O 0.0 **** 0.0
2850 H 5.299261 20.584929 34.270766 H 0.0 **** 0.0
2851 H 3.931622 20.889666 33.697536 H 0.0 **** 0.0
2852 M 4.555885 20.313589 33.900995 M 0.0 **** 0.0
2853 O 30.914552 33.66217 1.578293 O 0.0 **** 0.0
2854 H 30.280715 33.916874 0.907768 H 0.0 **** 0.0
2855 H 31.76517 33.891122 1.203781 H 0.0 **** 0.0
2856 M 30.942303 33.724084 1.444515 M 0.0 **** 0.0
2857 O 37.970798 24.98709 33.72514 O 0.0 **** 0.0
2858 H 38.513673 25.657577 34.139824 H 0.0 **** 0.0
2859 H 37.480192 25.458233 33.051672 H 0.0 **** 0.0
2860 M 37.977489 25.133233 33.692012 M 0.0 **** 0.0
2861 O 13.468469 1.201899 45.115545 O 0.0 **** 0.0
2862 H 14.148469 1.872238 45.182439 H 0.0 **** 0.0
2863 H 13.949237 0.384515 44.985259 H 0.0 **** 0.0
2864 M 13.617062 1.183075 45.10743 M 0.0 **** 0.0
2865 O 44.405832 28.86463 8.417252 O 0.0 **** 0.0
2866 H 45.043562 28.164006 8.280669 H 0.0 **** 0.0
2867 H 44.90342 29.562279 8.843774 H 0.0 **** 0.0
2868 M 44.551167 28.864249 8.454368 M 0.0 **** 0.0
2869 O 27.233958 25.504848 44.145938 O 0.0 **** 0.0
2870 H 27.882158 25.799911 43.506405 H 0.0 **** 0.0
2871 H 27.645814 25.662792 44.995442 H 0.0 **** 0.0
2872 M 27.369659 25.562838 44.172817 M 0.0 **** 0.0
2873 O 10.836679 40.153502 11.974785 O 0.0 **** 0.0
2874 H 10.85882 41.10923 12.02297 H 0.0 **** 0.0
2875 H 9.904877 39.934514 11.97907 H 0.0 **** 0.0
2876 M 10.720231 40.247814 11.981501 M 0.0 **** 0.0
2877 O 32.221269 7.719429 34.834175 O 0.0 **** 0.0
2878 H 32.717523 6.902356 34.882672 H 0.0 **** 0.0
2879 H 32.873389 8.383349 34.610169 H 0.0 **** 0.0
2880 M 32.368276 7.699823 34.811707 M 0.0 **** 0.0
2881 O 40.852864 7.241666 34.862915 O 0.0 **** 0.0
2882 H 40.314533 8.032753 34.838232 H 0.0 **** 0.0
2883 H 41.667565 7.49209 34.427279 H 0.0 **** 0.0
2884 M 40.888243 7.374992 34.803988 M 0.0 **** 0.0
2885 O 29.948786 37.805521 47.631255 O 0.0 **** 0.0
2886 H 30.380626 38.574121 48.004078 H 0.0 **** 0.0
2887 H 30.621812 37.124925 47.638628 H 0.0 **** 0.0
2888 M 30.090223 37.816786 47.679925 M 0.0 **** 0.0
2889 O 45.747945 25.764761 3.372343 O 0.0 **** 0.0
2890 H 46.612126 25.353989 3.398557 H 0.0 **** 0.0
2891 H 45.143316 25.041411 3.206762 H 0.0 **** 0.0
2892 M 45.781171 25.619579 3.354503 M 0.0 **** 0.0
2893 O 0.23317 33.459284 8.78941 O 0.0 **** 0.0
2894 H 0.000757 32.806246 8.129292 H 0.0 **** 0.0
2895 H 1.152426 33.660747 8.614453 H 0.0 **** 0.0
2896 M 0.321094 33.401477 8.68251 M 0.0 **** 0.0
2897 O 47.094394 41.472331 32.867573 O 0.0 **** 0.0
2898 H 47.793382 41.044203 32.373255 H 0.0 **** 0.0
2899 H 47.239463 42.407981 32.72706 H 0.0 **** 0.0
2900 M 47.202444 41.5373 32.786307 M 0.0 **** 0.0
2901 O 40.37828 14.086497 42.967834 O 0.0 **** 0.0
2902 H 39.671083 14.230473 42.339048 H 0.0 **** 0.0
2903 H 40.619509 14.964545 43.262909 H 0.0 **** 0.0
2904 M 40.31863 14.217329 42.925115 M 0.0 **** 0.0
2905 O 28.032659 33.962526 22.377308 O 0.0 **** 0.0
2906 H 28.772074 34.57004 22.39783 H 0.0 **** 0.0
2907 H 28.434396 33.094331 22.410089 H 0.0 **** 0.0
2908 M 28.178741 33.929156 22.384131 M 0.0 **** 0.0
2909 O 29.451214 19.018091 17.700458 O 0.0 **** 0.0
2910 H 29.153021 18.306926 18.267515 H 0.0 **** 0.0
2911 H 29.577262 18.606538 16.845493 H 0.0 **** 0.0
2912 M 29.429178 18.874369 17.663602 M 0.0 **** 0.0
2913 O 15.984244 46.523524 43.263789 O 0.0 **** 0.0
2914 H 15.331826 46.515812 42.563418 H 0.0 **** 0.0
2915 H 16.790658 46.224189 42.843879 H 0.0 **** 0.0
2916 M 16.003957 46.484218 43.120379 M 0.0 **** 0.0
2917 O 13.916 19.356079 45.157758 O 0.0 **** 0.0
2918 H 14.395918 20.184202 45.146852 H 0.0 **** 0.0
2919 H 13.118167 19.53449 44.659901 H 0.0 **** 0.0
2920 M 13.875303 19.484928 45.09263 M 0.0 **** 0.0
2921 O 35.582609 40.005164 20.508141 O 0.0 **** 0.0
2922 H 36.403859 39.700949 20.894443 H 0.0 **** 0.0
2923 H 35.067367 39.208481 20.381457 H 0.0 **** 0.0
2924 M 35.621782 39.864236 20.541375 M 0.0 **** 0.0
2925 O 43.00892 10.29134 45.211228 O 0.0 **** 0.0
2926 H 43.426086 9.439043 45.085564 H 0.0 **** 0.0
2927 H 42.118304 10.173665 44.880799 H 0.0 **** 0.0
2928 M 42.948313 10.167171 45.152842 M 0.0 **** 0.0
2929 O 40.930457 2.095519 34.113656 O 0.0 **** 0.0
2930 H 41.804019 2.233835 34.479699 H 0.0 **** 0.0
2931 H 40.573456 2.976979 34.004995 H 0.0 **** 0.0
2932 M 40.996583 2.226064 34.146604 M 0.0 **** 0.0
2933 O 9.339964 0.711889 34.17994 O 0.0 **** 0.0
2934 H 8.406106 0.90558 34.261315 H 0.0 **** 0.0
2935 H 9.736874 1.545563 33.927592 H 0.0 **** 0.0
2936 M 9.271228 0.843405 34.158053 M 0.0 **** 0.0
2937 O 2.322764 28.502819 32.913123 O 0.0 **** 0.0
2938 H 2.49644 27.609939 32.615078 H 0.0 **** 0.0
2939 H 2.731811 29.06054 32.251416 H 0.0 **** 0.0
2940 M 2.397359 28.459914 32.790262 M 0.0 **** 0.0
2941 O 14.398533 24.384606 36.939053 O 0.0 **** 0.0
2942 H 15.354507 24.336281 36.936361 H 0.0 **** 0.0
2943 H 14.20541 25.320693 36.887342 H 0.0 **** 0.0
2944 M 14.496188 24.498251 36.932088 M 0.0 **** 0.0
2945 O 11.922201 21.255142 3.951943 O 0.0 **** 0.0
2946 H 12.285676 22.117002 4.155199 H 0.0 **** 0.0
2947 H 12.638399 20.645015 4.12811 H 0.0 **** 0.0
2948 M 12.060413 21.287367 4.000514 M 0.0 **** 0.0
2949 O 17.012201 31.953256 7.502554 O 0.0 **** 0.0
2950 H 17.517997 31.144671 7.583722 H 0.0 **** 0.0
2951 H 16.098754 31.66769 7.519743 H 0.0 **** 0.0
2952 M 16.960017 31.813191 7.515145 M 0.0 **** 0.0
2953 O 17.742725 20.687527 36.522505 O 0.0 **** 0.0
2954 H 18.300305 21.294794 37.008879 H 0.0 **** 0.0
2955 H 17.303549 20.171196 37.19834 H 0.0 **** 0.0
2956 M 17.757883 20.699168 36.671282 M 0.0 **** 0.0
2957 O 14.189187 22.822782 35.001592 O 0.0 **** 0.0
2958 H 13.727317 23.660437 34.966385 H 0.0 **** 0.0
2959 H 13.779729 22.293991 34.316791 H 0.0 **** 0.0
2960 M 14.077646 22.862321 34.909422 M 0.0 **** 0.0
2961 O 31.903185 3.907074 34.752883 O 0.0 **** 0.0
2962 H 31.413379 3.286553 35.29258 H 0.0 **** 0.0
2963 H 31.653649 4.767477 35.090029 H 0.0 **** 0.0
2964 M 31.80854 3.937782 34.86513 M 0.0 **** 0.0
2965 O 12.113392 20.301071 34.002556 O 0.0 **** 0.0
2966 H 13.061228 20.169281 34.024174 H 0.0 **** 0.0
2967 H 11.883189 20.535956 34.90148 H 0.0 **** 0.0
2968 M 12.205258 20.314268 34.120397 M 0.0 **** 0.0
2969 O 18.885356 16.491935 17.014383 O 0.0 **** 0.0
2970 H 18.629777 16.026119 16.21819 H 0.0 **** 0.0
2971 H 18.323645 17.266835 17.029855 H 0.0 **** 0.0
2972 M 18.780732 16.531502 16.914441 M 0.0 **** 0.0
2973 O 12.59398 14.855768 0.992202 O 0.0 **** 0.0
2974 H 13.342256 15.324711 1.361529 H 0.0 **** 0.0
2975 H 12.251605 15.442989 0.318274 H 0.0 **** 0.0
2976 M 12.64594 14.990971 0.953209 M 0.0 **** 0.0
2977 O 24.002183 5.433196 28.510107 O 0.0 **** 0.0
2978 H 24.198278 4.505137 28.381725 H 0.0 **** 0.0
2979 H 23.242912 5.597645 27.950916 H 0.0 **** 0.0
2980 M 23.930089 5.335445 28.422089 M 0.0 **** 0.0
2981 O 8.298485 8.460919 38.572473 O 0.0 **** 0.0
2982 H 8.21823 9.219732 37.994553 H 0.0 **** 0.0
2983 H 7.406899 8.120723 38.647099 H 0.0 **** 0.0
2984 M 8.174077 8.514507 38.508045 M 0.0 **** 0.0
2985 O 31.645122 14.424477 3.228624 O 0.0 **** 0.0
2986 H 31.330444 14.195736 2.354047 H 0.0 **** 0.0
2987 H 32.089327 13.635024 3.537936 H 0.0 **** 0.0
2988 M 31.661703 14.294136 3.156263 M 0.0 **** 0.0
2989 O 31.341366 43.459751 29.642885 O 0.0 **** 0.0
2990 H 31.806893 44.295611 29.67206 H 0.0 **** 0.0
2991 H 31.888067 42.862617 30.153548 H 0.0 **** 0.0
2992 M 31.470944 43.490311 29.711991 M 0.0 **** 0.0
2993 O 35.305898 28.098707 35.54374 O 0.0 **** 0.0
2994 H 35.824959 28.432101 36.275624 H 0.0 **** 0.0
2995 H 34.697139 27.478081 35.94432 H 0.0 **** 0.0
2996 M 35.294415 28.061938 35.68871 M 0.0 **** 0.0
2997 O 24.570976 23.615816 39.114967 O 0.0 **** 0.0
2998 H 24.814298 24.485375 39.4326 H 0.0 **** 0.0
2999 H 24.693049 23.663827 38.1668 H 0.0 **** 0.0
3000 M 24.617751 23.733277 39.034251 M 0.0 **** 0.0
3001 O 39.456033 25.96097 30.875672 O 0.0 **** 0.0
3002 H 39.001971 25.211873 30.489783 H 0.0 **** 0.0
3003 H 38.8531 26.289559 31.542553 H 0.0 **** 0.0
3004 M 39.320724 25.90714 30.911643 M 0.0 **** 0.0
3005 O 27.698844 26.851818 39.84391 O 0.0 **** 0.0
3006 H 27.124051 27.284452 40.475312 H 0.0 **** 0.0
3007 H 27.887714 27.525348 39.190524 H 0.0 **** 0.0
3008 M 27.649441 26.993421 39.841096 M 0.0 **** 0.0
3009 O 39.420121 44.407695 44.144973 O 0.0 **** 0.0
3010 H 38.827308 44.397523 43.393509 H 0.0 **** 0.0
3011 H 39.368239 45.303042 44.479475 H 0.0 **** 0.0
3012 M 39.337592 44.521008 44.091596 M 0.0 **** 0.0
3013 O 36.071161 20.275124 38.262457 O 0.0 **** 0.0
3014 H 35.402257 19.59193 38.30764 H 0.0 **** 0.0
3015 H 35.926655 20.804707 39.046606 H 0.0 **** 0.0
3016 M 35.967034 20.25546 38.368622 M 0.0 **** 0.0
3017 O 26.673965 43.680414 20.422679 O 0.0 **** 0.0
3018 H 26.951799 44.295082 19.743548 H 0.0 **** 0.0
3019 H 26.288833 42.948447 19.940884 H 0.0 **** 0.0
3020 M 26.660229 43.665398 20.274066 M 0.0 **** 0.0
3021 O 34.840295 46.229516 32.897997 O 0.0 **** 0.0
3022 H 35.340255 46.519657 32.135051 H 0.0 **** 0.0
3023 H 35.505125 45.983019 33.541013 H 0.0 **** 0.0
3024 M 34.989403 46.235103 32.882645 M 0.0 **** 0.0
3025 O 21.778045 10.669868 16.787818 O 0.0 **** 0.0
3026 H 21.2515 10.568073 15.994965 H 0.0 **** 0.0
3027 H 22.064117 9.781785 17.001592 H 0.0 **** 0.0
3028 M 21.747262 10.543151 16.713689 M 0.0 **** 0.0
3029 O 13.144076 11.611814 16.890516 O 0.0 **** 0.0
3030 H 13.685625 10.825422 16.823117 H 0.0 **** 0.0
3031 H 12.316553 11.369685 16.474813 H 0.0 **** 0.0
3032 M 13.107468 11.48015 16.828673 M 0.0 **** 0.0
3033 O 36.793127 46.830501 28.362629 O 0.0 **** 0.0
3034 H 37.295218 46.044933 28.145795 H 0.0 **** 0.0
3035 H 37.220601 47.180368 29.14435 H 0.0 **** 0.0
3036 M 36.912123 46.774726 28.434942 M 0.0 **** 0.0
3037 O 5.754471 14.792437 23.416628 O 0.0 **** 0.0
3038 H 5.053174 14.914789 22.776753 H 0.0 **** 0.0
3039 H 6.321194 15.555016 23.300324 H 0.0 **** 0.0
3040 M 5.737244 14.905719 23.319828 M 0.0 **** 0.0
3041 O 17.786949 24.258618 32.780741 O 0.0 **** 0.0
3042 H 17.166446 24.962655 32.592229 H 0.0 **** 0.0
3043 H 18.269378 24.563303 33.549283 H 0.0 **** 0.0
3044 M 17.769273 24.387747 32.854992 M 0.0 **** 0.0
3045 O 32.689749 33.863073 47.913744 O 0.0 **** 0.0
3046 H 31.793099 34.186187 47.825171 H 0.0 **** 0.0
3047 H 32.605088 32.909988 47.887487 H 0.0 **** 0.0
3048 M 32.564129 33.782429 47.899044 M 0.0 **** 0.0
3049 O 8.254281 11.311726 9.079181 O 0.0 **** 0.0
3050 H 9.102816 10.919485 8.873357 H 0.0 **** 0.0
3051 H 7.612968 10.668485 8.777206 H 0.0 **** 0.0
3052 M 8.280808 11.179171 9.014177 M 0.0 **** 0.0
3053 O 2.8339 34.550652 42.370697 O 0.0 **** 0.0
3054 H 3.129994 33.657579 42.194694 H 0.0 **** 0.0
3055 H 3.64062 35.05973 42.44989 H 0.0 **** 0.0
3056 M 2.975074 34.501496 42.358304 M 0.0 **** 0.0
3057 O 34.427936 32.635391 22.372427 O 0.0 **** 0.0
3058 H 35.113401 33.182214 22.756291 H 0.0 **** 0.0
3059 H 33.64141 32.848797 22.874486 H 0.0 **** 0.0
3060 M 34.414999 32.73271 22.485836 M 0.0 **** 0.0
3061 O 28.597377 41.31527 36.514752 O 0.0 **** 0.0
3062 H 28.369337 41.986566 35.871643 H 0.0 **** 0.0
3063 H 29.385855 41.650094 36.941864 H 0.0 **** 0.0
3064 M 28.66912 41.444066 36.487102 M 0.0 **** 0.0
3065 O 15.118987 1.582014 40.727346 O 0.0 **** 0.0
3066 H 14.515588 2.324833 40.708383 H 0.0 **** 0.0
3067 H 15.989387 1.978966 40.694783 H 0.0 **** 0.0
3068 M 15.153166 1.727919 40.72075 M 0.0 **** 0.0
3069 O 18.999164 12.145422 43.556203 O 0.0 **** 0.0
3070 H 19.130154 11.295706 43.135427 H 0.0 **** 0.0
3071 H 18.085001 12.364294 43.375567 H 0.0 **** 0.0
3072 M 18.898908 12.064666 43.479215 M 0.0 **** 0.0
3073 O 25.266219 39.417697 1.235418 O 0.0 **** 0.0
3074 H 24.39929 39.453418 0.831207 H 0.0 **** 0.0
3075 H 25.477489 38.484679 1.268157 H 0.0 **** 0.0
3076 M 25.182286 39.302831 1.187865 M 0.0 **** 0.0
3077 O 23.196425 25.169113 21.439445 O 0.0 **** 0.0
3078 H 23.442245 24.244525 21.470087 H 0.0 **** 0.0
3079 H 22.257808 25.174235 21.62706 H 0.0 **** 0.0
3080 M 23.107739 25.05141 21.467385 M 0.0 **** 0.0
3081 O 43.470861 40.681233 7.863499 O 0.0 **** 0.0
3082 H 43.402797 40.154831 8.660052 H 0.0 **** 0.0
3083 H 44.362947 40.529816 7.551272 H 0.0 **** 0.0
3084 M 43.576346 40.594464 7.925499 M 0.0 **** 0.0
3085 O 40.248391 5.06547 35.160285 O 0.0 **** 0.0
3086 H 39.364634 4.699256 35.127284 H 0.0 **** 0.0
3087 H 40.502822 5.161452 34.242526 H 0.0 **** 0.0
3088 M 40.167829 5.030877 35.038576 M 0.0 **** 0.0
3089 O 28.557132 11.714022 7.537953 O 0.0 **** 0.0
3090 H 27.839664 12.004055 8.101291 H 0.0 **** 0.0
3091 H 29.337859 12.118438 7.916295 H 0.0 **** 0.0
3092 M 28.56523 11.80292 7.6585 M 0.0 **** 0.0
3093 O 38.654543 38.3413 31.964797 O 0.0 **** 0.0
3094 H 39.535457 38.708524 31.891551 H 0.0 **** 0.0
3095 H 38.792658 37.395851 32.022066 H 0.0 **** 0.0
3096 M 38.784992 38.26728 31.962752 M 0.0 **** 0.0
3097 O 38.219222 28.585162 20.33899 O 0.0 **** 0.0
3098 H 38.767581 29.26824 19.953066 H 0.0 **** 0.0
3099 H 38.814609 27.84829 20.475966 H 0.0 **** 0.0
3100 M 38.365636 28.578276 20.307121 M 0.0 **** 0.0
3101 O 46.173283 3.302669 38.716124 O 0.0 **** 0.0
3102 H 45.382878 3.836969 38.79366 H 0.0 **** 0.0
3103 H 46.819239 3.886097 38.317902 H 0.0 **** 0.0
3104 M 46.154792 3.445752 38.675073 M 0.0 **** 0.0
3105 O 19.45908 4.459714 23.953067 O 0.0 **** 0.0
3106 H 19.80984 3.715935 24.442955 H 0.0 **** 0.0
3107 H 19.006934 4.988392 24.610556 H 0.0 **** 0.0
3108 M 19.446101 4.432178 24.099946 M 0.0 **** 0.0
3109 O 44.435739 27.886751 26.01692 O 0.0 **** 0.0
3110 H 44.697683 26.966215 26.001818 H 0.0 **** 0.0
3111 H 43.575394 27.8846 26.436478 H 0.0 **** 0.0
3112 M 44.359136 27.768635 26.068695 M 0.0 **** 0.0
3113 O 6.07147 29.039221 19.765942 O 0.0 **** 0.0
3114 H 5.866074 28.108261 19.851695 H 0.0 **** 0.0
3115 H 6.900787 29.059015 19.288377 H 0.0 **** 0.0
3116 M 6.15134 28.922581 19.715786 M 0.0 **** 0.0
3117 O 17.30197 33.324958 26.611253 O 0.0 **** 0.0
3118 H 16.900438 32.84476 25.88709 H 0.0 **** 0.0
3119 H 17.237105 34.244791 26.35449 H 0.0 **** 0.0
3120 M 17.242265 33.381237 26.485682 M 0.0 **** 0.0
3121 O 3.295078 18.677165 21.446381 O 0.0 **** 0.0
3122 H 4.210694 18.402956 21.498203 H 0.0 **** 0.0
3123 H 3.314932 19.616138 21.631218 H 0.0 **** 0.0
3124 M 3.41483 18.762263 21.476676 M 0.0 **** 0.0
3125 O 16.078527 47.923156 23.196188 O 0.0 **** 0.0
3126 H 16.99806 47.661719 23.244544 H 0.0 **** 0.0
3127 H 15.888883 47.961417 22.258745 H 0.0 **** 0.0
3128 M 16.171962 47.894587 23.082374 M 0.0 **** 0.0
3129 O 4.947868 9.892593 32.140913 O 0.0 **** 0.0
3130 H 4.019592 9.740942 31.963331 H 0.0 **** 0.0
3131 H 5.311598 9.018173 32.279904 H 0.0 **** 0.0
3132 M 4.875599 9.761243 32.135973 M 0.0 **** 0.0
3133 O 40.341833 40.094272 29.663369 O 0.0 **** 0.0
3134 H 41.09234 40.672442 29.526667 H 0.0 **** 0.0
3135 H 40.686428 39.21404 29.512785 H 0.0 **** 0.0
3136 M 40.48202 40.055604 29.626593 M 0.0 **** 0.0
3137 O 33.340228 13.575778 17.089629 O 0.0 **** 0.0
3138 H 32.901533 14.421577 17.181285 H 0.0 **** 0.0
3139 H 32.628607 12.949408 16.957399 H 0.0 **** 0.0
3140 M 33.192973 13.603868 17.084435 M 0.0 **** 0.0
3141 O 9.177086 38.867183 17.882828 O 0.0 **** 0.0
3142 H 9.120697 39.820701 17.944903 H 0.0 **** 0.0
3143 H 9.154471 38.565803 18.791061 H 0.0 **** 0.0
3144 M 9.166973 38.950665 18.00704 M 0.0 **** 0.0
3145 O 3.868471 39.022259 5.878779 O 0.0 **** 0.0
3146 H 2.9123 38.9918 5.910994 H 0.0 **** 0.0
3147 H 4.114662 38.268558 5.34254 H 0.0 **** 0.0
3148 M 3.777585 38.921877 5.814258 M 0.0 **** 0.0
3149 O 29.711708 17.63816 47.179131 O 0.0 **** 0.0
3150 H 30.178017 17.482462 48.000437 H 0.0 **** 0.0
3151 H 30.347113 18.090755 46.624472 H 0.0 **** 0.0
3152 M 29.852742 17.676166 47.213265 M 0.0 **** 0.0
3153 O 34.550866 10.083919 32.328221 O 0.0 **** 0.0
3154 H 33.840679 9.982193 31.69457 H 0.0 **** 0.0
3155 H 35.306097 9.669648 31.910808 H 0.0 **** 0.0
3156 M 34.556632 10.017865 32.193672 M 0.0 **** 0.0
3157 O 40.001694 17.935388 13.584351 O 0.0 **** 0.0
3158 H 40.42375 17.081004 13.494213 H 0.0 **** 0.0
3159 H 39.114704 17.734592 13.882947 H 0.0 **** 0.0
3160 M 39.942176 17.800311 13.611036 M 0.0 **** 0.0
3161 O 47.314693 33.358987 15.809456 O 0.0 **** 0.0
3162 H 46.953872 32.707825 16.411141 H 0.0 **** 0.0
3163 H 48.001469 32.89172 15.333822 H 0.0 **** 0.0
3164 M 47.356419 33.215814 15.825592 M 0.0 **** 0.0
3165 O 39.777923 37.711648 34.82351 O 0.0 **** 0.0
3166 H 40.648813 37.988041 34.538229 H 0.0 **** 0.0
3167 H 39.304982 38.529504 34.977351 H 0.0 **** 0.0
3168 M 39.828865 37.851726 34.806684 M 0.0 **** 0.0
3169 O 31.521848 16.387766 20.191826 O 0.0 **** 0.0
3170 H 30.780396 16.716231 20.700342 H 0.0 **** 0.0
3171 H 32.204511 16.22259 20.842147 H 0.0 **** 0.0
3172 M 31.514322 16.408669 20.340172 M 0.0 **** 0.0
3173 O 10.960477 21.059302 23.745139 O 0.0 **** 0.0
3174 H 10.758331 21.988736 23.852459 H 0.0 **** 0.0
3175 H 11.236038 20.771578 24.615489 H 0.0 **** 0.0
3176 M 10.969875 21.141449 23.870293 M 0.0 **** 0.0
3177 O 25.61241 14.438777 18.282292 O 0.0 **** 0.0
3178 H 25.946958 13.573558 18.518304 H 0.0 **** 0.0
3179 H 26.395914 14.957367 18.099492 H 0.0 **** 0.0
3180 M 25.755535 14.394405 18.289104 M 0.0 **** 0.0
3181 O 14.233359 3.537049 42.512898 O 0.0 **** 0.0
3182 H 14.115194 3.071778 43.341021 H 0.0 **** 0.0
3183 H 15.16777 3.742694 42.484373 H 0.0 **** 0.0
3184 M 14.337849 3.503814 42.615256 M 0.0 **** 0.0
3185 O 18.944645 24.845886 1.545776 O 0.0 **** 0.0
3186 H 18.153653 24.30687 1.540997 H 0.0 **** 0.0
3187 H 19.610282 24.291649 1.953179 H 0.0 **** 0.0
3188 M 18.928598 24.705936 1.597317 M 0.0 **** 0.0
3189 O 11.554204 28.378156 31.311882 O 0.0 **** 0.0
3190 H 10.626943 28.382861 31.074408 H 0.0 **** 0.0
3191 H 11.589427 28.837733 32.150796 H 0.0 **** 0.0
3192 M 11.440012 28.43759 31.388874 M 0.0 **** 0.0
3193 O 33.074573 35.955521 40.120313 O 0.0 **** 0.0
3194 H 32.415985 35.98619 39.426375 H 0.0 **** 0.0
3195 H 33.906293 36.097385 39.668266 H 0.0 **** 0.0
3196 M 33.096736 35.977607 39.973612 M 0.0 **** 0.0
3197 O 39.778447 28.726487 26.383523 O 0.0 **** 0.0
3198 H 39.962604 28.073902 25.707913 H 0.0 **** 0.0
3199 H 40.364422 29.45529 26.179297 H 0.0 **** 0.0
3200 M 39.877034 28.736244 26.270893 M 0.0 **** 0.0
3201 O 43.036631 46.571681 37.149227 O 0.0 **** 0.0
3202 H 43.659243 46.016135 36.680237 H 0.0 **** 0.0
3203 H 43.574703 47.066615 37.767084 H 0.0 **** 0.0
3204 M 43.185213 46.563922 37.168284 M 0.0 **** 0.0
3205 O 28.416223 38.626041 43.919172 O 0.0 **** 0.0
3206 H 27.976147 39.474192 43.862592 H 0.0 **** 0.0
3207 H 29.348934 38.836028 43.872422 H 0.0 **** 0.0
3208 M 28.479287 38.761496 43.905944 M 0.0 **** 0.0
3209 O 9.334798 15.818801 25.167654 O 0.0 **** 0.0
3210 H 10.068781 15.207077 25.225018 H 0.0 **** 0.0
3211 H 9.740215 16.684824 25.210895 H 0.0 **** 0.0
3212 M 9.480656 15.851354 25.180533 M 0.0 **** 0.0
3213 O 16.20305 43.831399 30.514392 O 0.0 **** 0.0
3214 H 15.863742 44.688233 30.255673 H 0.0 **** 0.0
3215 H 16.049599 43.787509 31.45819 H 0.0 **** 0.0
3216 M 16.139971 43.935466 30.602091 M 0.0 **** 0.0
3217 O 0.495451 39.422334 33.230931 O 0.0 **** 0.0
3218 H -0.003577 38.696723 33.606015 H 0.0 **** 0.0
3219 H 0.002213 40.205058 33.476465 H 0.0 **** 0.0
3220 M 0.368429 39.429645 33.310378 M 0.0 **** 0.0
3221 O 47.153567 46.761712 26.041768 O 0.0 **** 0.0
3222 H 48.000005 46.324044 25.95111 H 0.0 **** 0.0
3223 H 47.269159 47.356671 26.78264 H 0.0 **** 0.0
3224 M 47.276719 46.781847 26.125003 M 0.0 **** 0.0
3225 O 27.929885 20.35027 3.941943 O 0.0 **** 0.0
3226 H 27.228411 20.98071 3.778511 H 0.0 **** 0.0
3227 H 28.665595 20.66895 3.419064 H 0.0 **** 0.0
3228 M 27.934267 20.47177 3.854087 M 0.0 **** 0.0
3229 O 29.194374 40.887671 15.917187 O 0.0 **** 0.0
3230 H 28.310828 41.225112 15.769847 H 0.0 **** 0.0
3231 H 29.07157 40.14172 16.504303 H 0.0 **** 0.0
3232 M 29.065548 40.835376 15.973484 M 0.0 **** 0.0
3233 O 40.892514 30.909756 13.339083 O 0.0 **** 0.0
3234 H 41.583133 31.483018 13.671715 H 0.0 **** 0.0
3235 H 40.690301 31.25679 12.47023 H 0.0 **** 0.0
3236 M 40.955036 31.027565 13.27044 M 0.0 **** 0.0
3237 O 26.703749 27.887392 35.839483 O 0.0 **** 0.0
3238 H 26.27265 28.718927 35.642175 H 0.0 **** 0.0
3239 H 26.333972 27.619006 36.680591 H 0.0 **** 0.0
3240 M 26.601227 27.959482 35.921898 M 0.0 **** 0.0
3241 O 32.651316 5.131999 7.488268 O 0.0 **** 0.0
3242 H 32.356779 5.116124 8.398886 H 0.0 **** 0.0
3243 H 33.581652 5.350976 7.540734 H 0.0 **** 0.0
3244 M 32.732706 5.157999 7.611555 M 0.0 **** 0.0
3245 O 10.058357 28.074427 27.52413 O 0.0 **** 0.0
3246 H 10.117106 28.732872 28.216393 H 0.0 **** 0.0
3247 H 10.931095 28.060759 27.13123 H 0.0 **** 0.0
3248 M 10.177599 28.156967 27.562452 M 0.0 **** 0.0
3249 O 41.340602 26.173398 17.733989 O 0.0 **** 0.0
3250 H 40.528674 25.772261 17.424003 H 0.0 **** 0.0
3251 H 41.466793 25.812515 18.611525 H 0.0 **** 0.0
3252 M 41.252819 26.07585 17.806643 M 0.0 **** 0.0
3253 O 9.543113 2.128972 16.09527 O 0.0 **** 0.0
3254 H 9.731308 2.899557 15.559537 H 0.0 **** 0.0
3255 H 8.914972 1.624746 15.578139 H 0.0 **** 0.0
3256 M 9.486795 2.163069 15.96049 M 0.0 **** 0.0
3257 O 33.331183 20.713323 0.11559 O 0.0 **** 0.0
3258 H 33.543895 20.3691 0.983054 H 0.0 **** 0.0
3259 H 32.402467 20.513004 -0.000983 H 0.0 **** 0.0
3260 M 33.239525 20.643615 0.211714 M 0.0 **** 0.0
3261 O 30.024609 11.83865 20.077067 O 0.0 **** 0.0
3262 H 30.382192 12.375892 19.370148 H 0.0 **** 0.0
3263 H 29.927024 10.968164 19.691113 H 0.0 **** 0.0
3264 M 30.057892 11.79599 19.937166 M 0.0 **** 0.0
3265 O 16.735141 8.374842 12.859981 O 0.0 **** 0.0
3266 H 16.157841 8.121185 13.580128 H 0.0 **** 0.0
3267 H 16.150431 8.480729 12.109561 H 0.0 **** 0.0
3268 M 16.586389 8.355926 12.856106 M 0.0 **** 0.0
3269 O 0.806635 37.382478 21.432599 O 0.0 **** 0.0
3270 H 0.717677 38.139974 22.010972 H 0.0 **** 0.0
3271 H -0.001286 37.376243 20.919321 H 0.0 **** 0.0
3272 M 0.691823 37.478649 21.440932 M 0.0 **** 0.0
3273 O 16.805725 38.207811 40.880693 O 0.0 **** 0.0
3274 H 16.653834 37.287354 41.094973 H 0.0 **** 0.0
3275 H 17.566181 38.196587 40.299479 H 0.0 **** 0.0
3276 M 16.883629 38.088545 40.833721 M 0.0 **** 0.0
3277 O 11.334821 24.670342 10.25664 O 0.0 **** 0.0
3278 H 11.562061 24.810208 9.337386 H 0.0 **** 0.0
3279 H 12.046263 24.129916 10.600178 H 0.0 **** 0.0
3280 M 11.454984 24.619065 10.182941 M 0.0 **** 0.0
3281 O 19.188133 23.906322 24.860102 O 0.0 **** 0.0
3282 H 18.444203 24.503138 24.778819 H 0.0 **** 0.0
3283 H 18.842358 23.054223 24.594403 H 0.0 **** 0.0
3284 M 19.048637 23.873643 24.815684 M 0.0 **** 0.0
3285 O 5.19628 33.892709 41.426783 O 0.0 **** 0.0
3286 H 6.15278 33.916144 41.398716 H 0.0 **** 0.0
3287 H 4.952029 33.255528 40.755538 H 0.0 **** 0.0
3288 M 5.287457 33.814142 41.337262 M 0.0 **** 0.0
3289 O 17.510995 43.917483 8.947598 O 0.0 **** 0.0
3290 H 18.049006 43.129106 8.875253 H 0.0 **** 0.0
3291 H 16.622804 43.589775 9.088855 H 0.0 **** 0.0
3292 M 17.466167 43.77461 8.95642 M 0.0 **** 0.0
3293 O 2.724702 33.25067 13.416155 O 0.0 **** 0.0
3294 H 2.65373 33.875094 12.694154 H 0.0 **** 0.0
3295 H 1.960935 33.430039 13.96453 H 0.0 **** 0.0
3296 M 2.617845 33.353566 13.393929 M 0.0 **** 0.0
3297 O 35.386276 15.845269 29.893707 O 0.0 **** 0.0
3298 H 34.535764 15.420888 30.006664 H 0.0 **** 0.0
3299 H 35.202238 16.780038 29.986261 H 0.0 **** 0.0
3300 M 35.253841 15.910605 29.920015 M 0.0 **** 0.0
3301 O 33.387864 11.476441 23.870585 O 0.0 **** 0.0
3302 H 33.044931 11.388217 22.981292 H 0.0 **** 0.0
3303 H 33.924262 12.26876 23.843449 H 0.0 **** 0.0
3304 M 33.41263 11.566574 23.753271 M 0.0 **** 0.0
3305 O 37.548132 2.441084 2.676788 O 0.0 **** 0.0
3306 H 37.846457 1.549158 2.498749 H 0.0 **** 0.0
3307 H 36.593012 2.378221 2.681569 H 0.0 **** 0.0
3308 M 37.464054 2.318859 2.654609 M 0.0 **** 0.0
3309 O 0.805611 29.665916 22.355798 O 0.0 **** 0.0
3310 H 0.000761 29.157986 22.253564 H 0.0 **** 0.0
3311 H 0.807214 30.265776 21.60988 H 0.0 **** 0.0
3312 M 0.702786 29.677684 22.247224 M 0.0 **** 0.0
3313 O 43.232217 2.438307 24.663728 O 0.0 **** 0.0
3314 H 42.863067 1.843197 24.011194 H 0.0 **** 0.0
3315 H 43.167689 3.304758 24.262072 H 0.0 **** 0.0
3316 M 43.1767 2.473042 24.528779 M 0.0 **** 0.0
3317 O 2.082531 9.235214 32.873671 O 0.0 **** 0.0
3318 H 2.377897 9.651071 33.683641 H 0.0 **** 0.0
3319 H 1.482386 8.547517 33.161989 H 0.0 **** 0.0
3320 M 2.043516 9.200415 33.014266 M 0.0 **** 0.0
3321 O 35.708671 9.552837 26.293216 O 0.0 **** 0.0
3322 H 36.563647 9.126689 26.232864 H 0.0 **** 0.0
3323 H 35.910544 10.484177 26.383108 H 0.0 **** 0.0
3324 M 35.843961 9.617508 26.296998 M 0.0 **** 0.0
3325 O 29.342411 32.333268 31.718382 O 0.0 **** 0.0
3326 H 30.226362 32.647661 31.908163 H 0.0 **** 0.0
3327 H 28.800946 33.12259 31.722355 H 0.0 **** 0.0
3328 M 29.386254 32.474558 31.743185 M 0.0 **** 0.0
3329 O 41.710152 28.80006 12.014732 O 0.0 **** 0.0
3330 H 42.122242 29.662926 11.971444 H 0.0 **** 0.0
3331 H 42.165038 28.352376 12.728095 H 0.0 **** 0.0
3332 M 41.821136 28.853209 12.10051 M 0.0 **** 0.0
3333 O 36.696276 39.137818 47.945535 O 0.0 **** 0.0
3334 H 36.779643 38.553494 47.19198 H 0.0 **** 0.0
3335 H 35.756016 39.300967 48.019848 H 0.0 **** 0.0
3336 M 36.586583 39.083902 47.858583 M 0.0 **** 0.0
3337 O 5.838957 20.732411 26.219817 O 0.0 **** 0.0
3338 H 5.170193 21.243272 26.675892 H 0.0 **** 0.0
3339 H 6.385661 21.386744 25.784855 H 0.0 **** 0.0
3340 M 5.823332 20.88157 26.22252 M 0.0 **** 0.0
3341 O 26.518906 45.477338 45.931059 O 0.0 **** 0.0
3342 H 26.646148 45.426694 46.87841 H 0.0 **** 0.0
3343 H 25.694677 45.952266 45.824669 H 0.0 **** 0.0
3344 M 26.429683 45.531652 46.038713 M 0.0 **** 0.0
3345 O 24.332981 44.567883 14.331975 O 0.0 **** 0.0
3346 H 23.500351 44.115126 14.466014 H 0.0 **** 0.0
3347 H 24.36188 45.227332 15.025171 H 0.0 **** 0.0
3348 M 24.230093 44.594342 14.437872 M 0.0 **** 0.0
3349 O 47.448071 44.687089 42.621528 O 0.0 **** 0.0
3350 H 47.801529 45.220439 43.33345 H 0.0 **** 0.0
3351 H 48.00057 43.905524 42.610072 H 0.0 **** 0.0
3352 M 47.564045 44.655314 42.711196 M 0.0 **** 0.0
3353 O 18.131857 32.948896 41.89988 O 0.0 **** 0.0
3354 H 18.057752 33.902135 41.854351 H 0.0 **** 0.0
3355 H 17.226602 32.63845 41.919026 H 0.0 **** 0.0
3356 M 18.006486 33.031182 41.896502 M 0.0 **** 0.0
3357 O 33.812022 19.151237 9.268607 O 0.0 **** 0.0
3358 H 33.039217 18.60757 9.421666 H 0.0 **** 0.0
3359 H 34.55212 18.577843 9.467862 H 0.0 **** 0.0
3360 M 33.807835 19.00824 9.313707 M 0.0 **** 0.0
3361 O 41.984394 14.773676 7.875322 O 0.0 **** 0.0
3362 H 41.500893 13.982074 8.11159 H 0.0 **** 0.0
3363 H 42.905023 14.531277 7.974885 H 0.0 **** 0.0
3364 M 42.040352 14.641311 7.918312 M 0.0 **** 0.0
3365 O 3.199281 28.047815 45.918582 O 0.0 **** 0.0
3366 H 2.486545 27.410277 45.876377 H 0.0 **** 0.0
3367 H 2.764453 28.898325 45.857059 H 0.0 **** 0.0
3368 M 3.052379 28.075078 45.905304 M 0.0 **** 0.0
3369 O 1.806471 40.680118 14.434163 O 0.0 **** 0.0
3370 H 2.737648 40.897514 14.477492 H 0.0 **** 0.0
3371 H 1.359278 41.522335 14.517339 H 0.0 **** 0.0
3372 M 1.868427 40.815762 14.450357 M 0.0 **** 0.0
3373 O 13.91372 0.46851 38.513871 O 0.0 **** 0.0
3374 H 13.780391 1.334012 38.90034 H 0.0 **** 0.0
3375 H 13.151664 -0.038975 38.793082 H 0.0 **** 0.0
3376 M 13.7991 0.51434 38.599087 M 0.0 **** 0.0
3377 O 41.006294 4.39326 22.267328 O 0.0 **** 0.0
3378 H 41.734422 4.005471 22.752796 H 0.0 **** 0.0
3379 H 40.538421 4.919171 22.915974 H 0.0 **** 0.0
3380 M 41.03961 4.410942 22.412509 M 0.0 **** 0.0
3381 O 3.179648 32.596125 6.655539 O 0.0 **** 0.0
3382 H 2.877481 33.305531 7.222696 H 0.0 **** 0.0
3383 H 3.587183 33.040328 5.912016 H 0.0 **** 0.0
3384 M 3.193136 32.743801 6.632962 M 0.0 **** 0.0
3385 O 25.357054 26.549278 30.107546 O 0.0 **** 0.0
3386 H 24.555946 26.065366 29.906838 H 0.0 **** 0.0
3387 H 25.559866 26.312839 31.012639 H 0.0 **** 0.0
3388 M 25.280465 26.457064 30.197716 M 0.0 **** 0.0
3389 O 43.649259 7.804918 31.023962 O 0.0 **** 0.0
3390 H 43.033221 7.475927 30.36937 H 0.0 **** 0.0
3391 H 44.265357 7.084558 31.157128 H 0.0 **** 0.0
3392 M 43.649266 7.670588 30.957213 M 0.0 **** 0.0
3393 O 41.236019 26.841453 14.871188 O 0.0 **** 0.0
3394 H 41.088144 27.132423 15.77102 H 0.0 **** 0.0
3395 H 42.070386 27.240197 14.624077 H 0.0 **** 0.0
3396 M 41.323899 26.929745 14.954745 M 0.0 **** 0.0
3397 O 40.424819 4.568638 38.983802 O 0.0 **** 0.0
3398 H 39.570885 4.735039 39.382972 H 0.0 **** 0.0
3399 H 40.605215 3.648802 39.177678 H 0.0 **** 0.0
3400 M 40.338598 4.472189 39.059719 M 0.0 **** 0.0
3401 O 12.447254 25.441776 33.455461 O 0.0 **** 0.0
3402 H 13.025122 25.59652 34.202691 H 0.0 **** 0.0
3403 H 12.874033 24.740504 32.963214 H 0.0 **** 0.0
3404 M 12.575862 25.371813 33.488102 M 0.0 **** 0.0
3405 O 41.183625 33.453883 8.848461 O 0.0 **** 0.0
3406 H 40.936979 32.79685 8.197537 H 0.0 **** 0.0
3407 H 41.740264 34.068393 8.370174 H 0.0 **** 0.0
3408 M 41.223308 33.44844 8.703908 M 0.0 **** 0.0
3409 O 3.832112 25.848404 32.4728 O 0.0 **** 0.0
3410 H 4.675864 26.107514 32.843167 H 0.0 **** 0.0
3411 H 3.343632 25.491923 33.214782 H 0.0 **** 0.0
3412 M 3.877591 25.835939 32.615195 M 0.0 **** 0.0
3413 O 32.813852 14.12566 0.46376 O 0.0 **** 0.0
3414 H 32.885043 13.366687 1.042657 H 0.0 **** 0.0
3415 H 33.652604 14.155975 0.003538 H 0.0 **** 0.0
3416 M 32.930337 14.032382 0.478952 M 0.0 **** 0.0
3417 O 25.702283 29.000806 29.039299 O 0.0 **** 0.0
3418 H 24.921465 28.457985 28.930219 H 0.0 **** 0.0
3419 H 26.314138 28.446539 29.523704 H 0.0 **** 0.0
3420 M 25.680654 28.860365 29.087345 M 0.0 **** 0.0
3421 O 10.806685 14.78334 37.321113 O 0.0 **** 0.0
3422 H 11.014681 14.559746 38.228291 H 0.0 **** 0.0
3423 H 10.941538 15.729623 37.270205 H 0.0 **** 0.0
3424 M 10.850574 14.875854 37.430726 M 0.0 **** 0.0
3425 O 27.549286 21.60515 19.154151 O 0.0 **** 0.0
3426 H 27.334389 22.046065 19.976125 H 0.0 **** 0.0
3427 H 26.701573 21.441503 18.740835 H 0.0 **** 0.0
3428 M 27.413259 21.640644 19.206464 M 0.0 **** 0.0
3429 O 43.946276 30.103737 22.501719 O 0.0 **** 0.0
3430 H 43.321965 30.753172 22.178147 H 0.0 **** 0.0
3431 H 44.209457 29.61461 21.722155 H 0.0 **** 0.0
3432 M 43.900047 30.124259 22.360503 M 0.0 **** 0.0
3433 O 13.432992 11.670542 26.611785 O 0.0 **** 0.0
3434 H 12.767269 11.329148 26.014716 H 0.0 **** 0.0
3435 H 14.135684 11.976281 26.03822 H 0.0 **** 0.0
3436 M 13.437725 11.665978 26.461929 M 0.0 **** 0.0
3437 O 28.482638 1.561558 10.106282 O 0.0 **** 0.0
3438 H 28.294698 1.81959 11.008682 H 0.0 **** 0.0
3439 H 29.421714 1.715654 10.003235 H 0.0 **** 0.0
3440 M 28.578793 1.614316 10.208609 M 0.0 **** 0.0
3441 O 18.63735 37.673386 5.735943 O 0.0 **** 0.0
3442 H 17.887583 38.08533 6.165339 H 0.0 **** 0.0
3443 H 18.308972 36.823295 5.443126 H 0.0 **** 0.0
3444 M 18.499334 37.617298 5.753427 M 0.0 **** 0.0
3445 O 8.486832 30.118675 11.953235 O 0.0 **** 0.0
3446 H 9.25348 30.66712 12.119632 H 0.0 **** 0.0
3447 H 8.516423 29.450657 12.638148 H 0.0 **** 0.0
3448 M 8.588761 30.103368 12.062214 M 0.0 **** 0.0
3449 O 24.405749 2.574704 37.846062 O 0.0 **** 0.0
3450 H 23.495941 2.867581 37.898043 H 0.0 **** 0.0
3451 H 24.360182 1.727436 37.403017 H 0.0 **** 0.0
3452 M 24.283449 2.503735 37.796001 M 0.0 **** 0.0
3453 O 43.967839 22.615699 6.974783 O 0.0 **** 0.0
3454 H 44.376506 23.190404 7.622034 H 0.0 **** 0.0
3455 H 43.919718 21.76313 7.407263 H 0.0 **** 0.0
3456 M 44.013993 22.580129 7.113002 M 0.0 **** 0.0
3457 O 6.929396 38.420176 21.41238 O 0.0 **** 0.0
3458 H 7.284212 37.629993 21.819742 H 0.0 **** 0.0
3459 H 6.501917 38.888575 22.129383 H 0.0 **** 0.0
3460 M 6.920094 38.378984 21.556313 M 0.0 **** 0.0
3461 O 4.600326 33.224051 44.774091 O 0.0 **** 0.0
3462 H 3.766833 33.235544 44.303576 H 0.0 **** 0.0
3463 H 4.421858 32.716967 45.566078 H 0.0 **** 0.0
3464 M 4.470783 33.160609 44.815244 M 0.0 **** 0.0
3465 O 3.635555 31.485464 3.734433 O 0.0 **** 0.0
3466 H 3.817847 32.424697 3.705463 H 0.0 **** 0.0
3467 H 3.75037 31.246972 4.654307 H 0.0 **** 0.0
3468 M 3.673589 31.575168 3.84848 M 0.0 **** 0.0
3469 O 44.573616 35.454507 43.674762 O 0.0 **** 0.0
3470 H 44.035402 35.485248 44.465716 H 0.0 **** 0.0
3471 H 44.321906 34.637183 43.244818 H 0.0 **** 0.0
3472 M 44.472496 35.353814 43.720976 M 0.0 **** 0.0
3473 O 7.820202 9.732027 35.089777 O 0.0 **** 0.0
3474 H 7.224685 10.399786 34.749649 H 0.0 **** 0.0
3475 H 7.997976 9.164518 34.339738 H 0.0 **** 0.0
3476 M 7.766725 9.744861 34.950222 M 0.0 **** 0.0
3477 O 26.95776 42.342838 2.531173 O 0.0 **** 0.0
3478 H 26.645969 43.212129 2.782864 H 0.0 **** 0.0
3479 H 26.16067 41.846429 2.345549 H 0.0 **** 0.0
3480 M 26.815809 42.390572 2.53963 M 0.0 **** 0.0
3481 O 30.17524 1.161707 42.470414 O 0.0 **** 0.0
3482 H 30.770015 0.568973 42.929911 H 0.0 **** 0.0
3483 H 29.485804 0.592453 42.128573 H 0.0 **** 0.0
3484 M 30.163122 1.012958 42.485475 M 0.0 **** 0.0
3485 O 19.280654 47.955497 32.524833 O 0.0 **** 0.0
3486 H 19.033109 47.535493 33.348573 H 0.0 **** 0.0
3487 H 19.895103 47.344056 32.118853 H 0.0 **** 0.0
3488 M 19.327622 47.823459 32.578312 M 0.0 **** 0.0
3489 O 25.403278 45.431065 34.952751 O 0.0 **** 0.0
3490 H 24.496805 45.149049 35.075233 H 0.0 **** 0.0
3491 H 25.710255 45.641885 35.834538 H 0.0 **** 0.0
3492 M 25.326535 45.421951 35.08131 M 0.0 **** 0.0
3493 O 43.697359 8.509825 28.545988 O 0.0 **** 0.0
3494 H 44.36118 8.763935 29.187079 H 0.0 **** 0.0
3495 H 43.546912 9.301619 28.029601 H 0.0 **** 0.0
3496 M 43.763077 8.643714 28.561952 M 0.0 **** 0.0
3497 O 5.011056 45.329487 13.78583 O 0.0 **** 0.0
3498 H 5.098354 46.030246 14.432006 H 0.0 **** 0.0
3499 H 5.652437 45.545848 13.109039 H 0.0 **** 0.0
3500 M 5.104336 45.44689 13.781911 M 0.0 **** 0.0
3501 O 37.276214 6.342119 44.787343 O 0.0 **** 0.0
3502 H 37.967476 5.68084 44.820447 H 0.0 **** 0.0
3503 H 37.741645 7.1778 44.822525 H 0.0 **** 0.0
3504 M 37.424285 6.364444 44.796084 M 0.0 **** 0.0
3505 O 16.416533 46.704376 33.640288 O 0.0 **** 0.0
3506 H 16.395327 46.27779 34.496911 H 0.0 **** 0.0
3507 H 15.56728 46.499532 33.249088 H 0.0 **** 0.0
3508 M 16.305104 46.623545 33.699868 M 0.0 **** 0.0
3509 O 35.309715 43.349741 31.068213 O 0.0 **** 0.0
3510 H 35.926377 42.836437 30.546222 H 0.0 **** 0.0
3511 H 35.055987 42.765694 31.782875 H 0.0 **** 0.0
3512 M 35.356175 43.209266 31.092878 M 0.0 **** 0.0
3513 O 13.965807 6.761569 23.284034 O 0.0 **** 0.0
3514 H 13.569205 5.986128 22.887012 H 0.0 **** 0.0
3515 H 13.262037 7.152742 23.801644 H 0.0 **** 0.0
3516 M 13.824946 6.712377 23.299471 M 0.0 **** 0.0
3517 O 11.536847 3.662379 20.674501 O 0.0 **** 0.0
3518 H 11.903226 3.020281 21.282535 H 0.0 **** 0.0
3519 H 10.686044 3.300299 20.426995 H 0.0 **** 0.0
3520 M 11.474835 3.533832 20.720653 M 0.0 **** 0.0
3521 O 3.610634 3.701621 11.423047 O 0.0 **** 0.0
3522 H 4.50507 3.511748 11.706172 H 0.0 **** 0.0
3523 H 3.653703 4.591145 11.072161 H 0.0 **** 0.0
3524 M 3.730646 3.791185 11.414373 M 0.0 **** 0.0
3525 O 46.759162 38.200713 1.319168 O 0.0 **** 0.0
3526 H 45.810478 38.113701 1.226134 H 0.0 **** 0.0
3527 H 47.107411 37.962511 0.459976 H 0.0 **** 0.0
3528 M 46.682299 38.159081 1.197271 M 0.0 **** 0.0
3529 O 41.989988 1.338699 46.208592 O 0.0 **** 0.0
3530 H 41.673843 1.012585 45.366019 H 0.0 **** 0.0
3531 H 42.188093 0.549311 46.712428 H 0.0 **** 0.0
3532 M 41.974878 1.195901 46.16523 M 0.0 **** 0.0
3533 O 11.39173 42.223313 27.206451 O 0.0 **** 0.0
3534 H 12.106688 42.841386 27.054636 H 0.0 **** 0.0
3535 H 11.703549 41.666104 27.919554 H 0.0 **** 0.0
3536 M 11.52317 42.231104 27.278303 M 0.0 **** 0.0
3537 O 29.413574 8.462841 6.98125 O 0.0 **** 0.0
3538 H 29.253205 8.330208 7.915551 H 0.0 **** 0.0
3539 H 28.72622 9.068267 6.703343 H 0.0 **** 0.0
3540 M 29.305055 8.523364 7.065277 M 0.0 **** 0.0
3541 O 6.062111 32.98047 30.694436 O 0.0 **** 0.0
3542 H 5.241856 33.448748 30.539113 H 0.0 **** 0.0
3543 H 6.559299 33.092038 29.884137 H 0.0 **** 0.0
3544 M 6.020754 33.054698 30.570824 M 0.0 **** 0.0
3545 O 25.169429 14.09563 16.158812 O 0.0 **** 0.0
3546 H 25.446041 13.214282 16.409692 H 0.0 **** 0.0
3547 H 25.936411 14.474832 15.729659 H 0.0 **** 0.0
3548 M 25.303022 14.031349 16.135991 M 0.0 **** 0.0
3549 O 7.600637 33.987883 31.903576 O 0.0 **** 0.0
3550 H 8.1126 33.724885 32.668399 H 0.0 **** 0.0
3551 H 8.239935 34.384149 31.311546 H 0.0 **** 0.0
3552 M 7.748013 34.004943 31.925696 M 0.0 **** 0.0
3553 O 11.474124 9.051129 38.325072 O 0.0 **** 0.0
3554 H 10.958205 8.481086 38.895254 H 0.0 **** 0.0
3555 H 11.617808 9.842759 38.843634 H 0.0 **** 0.0
3556 M 11.426473 9.079495 38.464445 M 0.0 **** 0.0
3557 O 0.199356 33.019349 10.94326 O 0.0 **** 0.0
3558 H 0.00205 32.08324 10.97485 H 0.0 **** 0.0
3559 H 0.923552 33.132877 11.558792 H 0.0 **** 0.0
3560 M 0.266804 32.914049 11.0261 M 0.0 **** 0.0
3561 O 46.086619 30.666727 31.448751 O 0.0 **** 0.0
3562 H 45.406056 31.338964 31.4828 H 0.0 **** 0.0
3563 H 45.619521 29.863826 31.217672 H 0.0 **** 0.0
3564 M 45.939704 30.650001 31.423529 M 0.0 **** 0.0
3565 O 41.38029 1.010449 38.678791 O 0.0 **** 0.0
3566 H 40.446691 1.195749 38.780201 H 0.0 **** 0.0
3567 H 41.796927 1.872206 38.674555 H 0.0 **** 0.0
3568 M 41.314113 1.144485 38.69123 M 0.0 **** 0.0
3569 O 30.411501 24.527599 22.573922 O 0.0 **** 0.0
3570 H 30.772142 23.649979 22.447634 H 0.0 **** 0.0
3571 H 31.178689 25.098352 22.617427 H 0.0 **** 0.0
3572 M 30.555877 24.488316 22.563325 M 0.0 **** 0.0
3573 O 6.527006 38.313905 45.577026 O 0.0 **** 0.0
3574 H 6.417147 39.253945 45.433906 H 0.0 **** 0.0
3575 H 7.474827 38.186408 45.617131 H 0.0 **** 0.0
3576 M 6.634276 38.41792 45.563839 M 0.0 **** 0.0
3577 O 38.420449 12.552792 28.803642 O 0.0 **** 0.0
3578 H 37.955845 11.767109 28.515418 H 0.0 **** 0.0
3579 H 37.732952 13.129507 29.136773 H 0.0 **** 0.0
3580 M 38.272966 12.526042 28.809391 M 0.0 **** 0.0
3581 O 17.987039 41.914151 33.350461 O 0.0 **** 0.0
3582 H 18.063492 40.979565 33.542642 H 0.0 **** 0.0
3583 H 18.85043 42.162681 33.020283 H 0.0 **** 0.0
3584 M 18.107351 41.826327 33.332795 M 0.0 **** 0.0
3585 O 28.530185 34.250185 29.79281 O 0.0 **** 0.0
3586 H 28.902279 35.098705 30.033203 H 0.0 **** 0.0
3587 H 27.600401 34.326484 30.007075 H 0.0 **** 0.0
3588 M 28.458794 34.368574 29.851012 M 0.0 **** 0.0
3589 O 11.988588 31.610023 27.694053 O 0.0 **** 0.0
3590 H 12.569061 30.873549 27.501995 H 0.0 **** 0.0
3591 H 11.110107 31.277639 27.509606 H 0.0 **** 0.0
3592 M 11.950439 31.473196 27.645856 M 0.0 **** 0.0
3593 O 0.363957 17.450015 31.398273 O 0.0 **** 0.0
3594 H 1.28596 17.609759 31.599819 H 0.0 **** 0.0
3595 H 0.348352 16.56661 31.030058 H 0.0 **** 0.0
3596 M 0.479987 17.357377 31.376937 M 0.0 **** 0.0
3597 O 35.12678 40.50995 1.603092 O 0.0 **** 0.0
3598 H 34.210977 40.493208 1.325146 H 0.0 **** 0.0
3599 H 35.191387 39.815368 2.258539 H 0.0 **** 0.0
3600 M 35.017816 40.418892 1.651417 M 0.0 **** 0.0
3601 O 17.986321 0.866427 45.77443 O 0.0 **** 0.0
3602 H 18.851401 1.126204 46.09126 H 0.0 **** 0.0
3603 H 18.111692 -0.01899 45.433037 H 0.0 **** 0.0
3604 M 18.113111 0.786337 45.771285 M 0.0 **** 0.0
3605 O 40.7755 20.338276 5.910137 O 0.0 **** 0.0
3606 H 40.796151 19.38464 5.990009 H 0.0 **** 0.0
3607 H 41.656785 20.618901 6.156744 H 0.0 **** 0.0
3608 M 40.890959 20.252122 5.95193 M 0.0 **** 0.0
3609 O 28.514329 3.809597 10.097089 O 0.0 **** 0.0
3610 H 27.88984 4.335169 9.597072 H 0.0 **** 0.0
3611 H 29.353183 4.254605 9.976585 H 0.0 **** 0.0
3612 M 28.541771 3.933844 10.017655 M 0.0 **** 0.0
3613 O 19.509894 12.500067 22.798974 O 0.0 **** 0.0
3614 H 20.382561 12.283321 23.127155 H 0.0 **** 0.0
3615 H 19.55975 12.335031 21.857429 H 0.0 **** 0.0
3616 M 19.627989 12.451194 22.720456 M 0.0 **** 0.0
3617 O 9.973274 30.211348 47.314189 O 0.0 **** 0.0
3618 H 10.427187 29.371018 47.250643 H 0.0 **** 0.0
3619 H 10.636146 30.860562 47.078924 H 0.0 **** 0.0
3620 M 10.116236 30.186882 47.275937 M 0.0 **** 0.0
3621 O 17.409704 40.851121 37.462882 O 0.0 **** 0.0
3622 H 17.764324 41.145235 38.301912 H 0.0 **** 0.0
3623 H 17.73835 39.957632 37.363394 H 0.0 **** 0.0
3624 M 17.497171 40.774393 37.557553 M 0.0 **** 0.0
3625 O 27.033589 6.42452 33.104217 O 0.0 **** 0.0
3626 H 26.332724 6.988685 32.777514 H 0.0 **** 0.0
3627 H 27.010563 5.65744 32.532128 H 0.0 **** 0.0
3628 M 26.940922 6.398544 32.98916 M 0.0 **** 0.0
3629 O 21.879609 44.395298 32.641798 O 0.0 **** 0.0
3630 H 22.545984 44.636418 33.285252 H 0.0 **** 0.0
3631 H 21.42343 45.214693 32.450169 H 0.0 **** 0.0
3632 M 21.906517 44.531057 32.699637 M 0.0 **** 0.0
3633 O 26.857855 44.126869 7.138738 O 0.0 **** 0.0
3634 H 27.49052 44.844709 7.164616 H 0.0 **** 0.0
3635 H 27.394577 43.334602 7.117008 H 0.0 **** 0.0
3636 M 27.007552 44.117341 7.139269 M 0.0 **** 0.0
3637 O 0.006331 29.756235 11.028879 O 0.0 **** 0.0
3638 H 0.001126 28.900213 10.600596 H 0.0 **** 0.0
3639 H 0.900246 30.077801 10.911661 H 0.0 **** 0.0
3640 M 0.120097 29.687818 10.959048 M 0.0 **** 0.0
3641 O 45.36271 8.432985 40.60247 O 0.0 **** 0.0
3642 H 45.365973 7.478035 40.536981 H 0.0 **** 0.0
3643 H 44.435596 8.670936 40.594251 H 0.0 **** 0.0
3644 M 45.244446 8.3412 40.593035 M 0.0 **** 0.0
3645 O 39.007667 41.130614 40.126373 O 0.0 **** 0.0
3646 H 38.050666 41.149983 40.124406 H 0.0 **** 0.0
3647 H 39.266286 42.051709 40.156862 H 0.0 **** 0.0
3648 M 38.918265 41.251005 40.130024 M 0.0 **** 0.0
3649 O 15.978934 9.668626 37.124173 O 0.0 **** 0.0
3650 H 15.497649 8.889008 37.40128 H 0.0 **** 0.0
3651 H 15.494717 10.399054 37.509189 H 0.0 **** 0.0
3652 M 15.855338 9.662329 37.208933 M 0.0 **** 0.0
3653 O 19.807967 37.554741 2.942568 O 0.0 **** 0.0
3654 H 20.535562 38.042135 3.328937 H 0.0 **** 0.0
3655 H 19.089154 37.662788 3.565354 H 0.0 **** 0.0
3656 M 19.809091 37.630965 3.071752 M 0.0 **** 0.0
3657 O 24.673768 1.653393 35.098809 O 0.0 **** 0.0
3658 H 25.393452 2.039603 34.599684 H 0.0 **** 0.0
3659 H 24.976235 0.770649 35.31213 H 0.0 **** 0.0
3660 M 24.804616 1.58983 35.062222 M 0.0 **** 0.0
3661 O 39.114357 32.06457 3.627612 O 0.0 **** 0.0
3662 H 38.22685 32.404395 3.513251 H 0.0 **** 0.0
3663 H 38.99234 31.135227 3.821681 H 0.0 **** 0.0
3664 M 38.985125 31.989104 3.637816 M 0.0 **** 0.0
3665 O 23.976467 8.957286 3.193748 O 0.0 **** 0.0
3666 H 23.024966 8.86242 3.150433 H 0.0 **** 0.0
3667 H 24.295679 8.080197 3.405993 H 0.0 **** 0.0
3668 M 23.895526 8.832863 3.215374 M 0.0 **** 0.0
3669 O 47.542021 4.792909 4.841707 O 0.0 **** 0.0
3670 H 47.589892 3.948785 4.392939 H 0.0 **** 0.0
3671 H 46.613383 5.023963 4.819922 H 0.0 **** 0.0
3672 M 47.429272 4.714428 4.781471 M 0.0 **** 0.0
3673 O 7.537221 26.131035 2.872921 O 0.0 **** 0.0
3674 H 7.184761 26.63838 3.604086 H 0.0 **** 0.0
3675 H 8.342922 25.744169 3.215572 H 0.0 **** 0.0
3676 M 7.595242 26.146458 3.010383 M 0.0 **** 0.0
3677 O 27.15098 21.126259 29.54263 O 0.0 **** 0.0
3678 H 26.300873 20.792007 29.256584 H 0.0 **** 0.0
3679 H 27.731533 20.365969 29.508769 H 0.0 **** 0.0
3680 M 27.116474 20.986144 29.501678 M 0.0 **** 0.0
3681 O 30.441037 18.933176 5.621509 O 0.0 **** 0.0
3682 H 30.643922 19.866583 5.55972 H 0.0 **** 0.0
3683 H 29.484608 18.895403 5.628233 H 0.0 **** 0.0
3684 M 30.344574 19.047828 5.61446 M 0.0 **** 0.0
3685 O 14.058784 21.046449 12.921354 O 0.0 **** 0.0
3686 H 13.48516 20.549263 13.50444 H 0.0 **** 0.0
3687 H 13.804927 20.769043 12.041109 H 0.0 **** 0.0
3688 M 13.952856 20.947292 12.883314 M 0.0 **** 0.0
3689 O 41.299283 39.111735 3.574024 O 0.0 **** 0.0
3690 H 42.174329 39.408761 3.82362 H 0.0 **** 0.0
3691 H 41.382543 38.86767 2.652216 H 0.0 **** 0.0
3692 M 41.421958 39.118515 3.487972 M 0.0 **** 0.0
3693 O 11.156995 19.19714 14.111529 O 0.0 **** 0.0
3694 H 11.413935 19.42658 13.218462 H 0.0 **** 0.0
3695 H 11.978139 18.965613 14.545518 H 0.0 **** 0.0
3696 M 11.295004 19.196873 14.052761 M 0.0 **** 0.0
3697 O 11.065039 22.26892 33.616343 O 0.0 **** 0.0
3698 H 10.824387 22.426197 34.529348 H 0.0 **** 0.0
3699 H 11.754255 22.90828 33.436264 H 0.0 **** 0.0
3700 M 11.122461 22.3709 33.710167 M 0.0 **** 0.0
3701 O 19.05192 5.479852 37.620523 O 0.0 **** 0.0
3702 H 19.346672 6.23659 38.127177 H 0.0 **** 0.0
3703 H 18.105054 5.452933 37.758178 H 0.0 **** 0.0
3704 M 18.968442 5.573278 37.703002 M 0.0 **** 0.0
3705 O 1.549543 28.948703 17.9913 O 0.0 **** 0.0
3706 H 2.189541 28.23699 18.001082 H 0.0 **** 0.0
3707 H 1.990608 29.674169 18.433329 H 0.0 **** 0.0
3708 M 1.687933 28.950464 18.049138 M 0.0 **** 0.0
3709 O 24.044604 25.944125 36.849107 O 0.0 **** 0.0
3710 H 23.149007 25.606351 36.855785 H 0.0 **** 0.0
3711 H 24.430969 25.583999 36.050821 H 0.0 **** 0.0
3712 M 23.979416 25.854785 36.747771 M 0.0 **** 0.0
3713 O 42.336183 28.3136 38.513236 O 0.0 **** 0.0
3714 H 42.971798 28.797732 39.040341 H 0.0 **** 0.0
3715 H 42.828028 27.568003 38.16914 H 0.0 **** 0.0
3716 M 42.480512 28.280129 38.536663 M 0.0 **** 0.0
3717 O 2.415524 18.804131 4.277972 O 0.0 **** 0.0
3718 H 3.210439 18.290367 4.420749 H 0.0 **** 0.0
3719 H 2.718348 19.711697 4.248822 H 0.0 **** 0.0
3720 M 2.556048 18.854543 4.292518 M 0.0 **** 0.0
3721 O 24.890805 0.524419 9.395736 O 0.0 **** 0.0
3722 H 25.619614 0.000516 9.063182 H 0.0 **** 0.0
3723 H 24.11266 -0.000445 9.208025 H 0.0 **** 0.0
3724 M 24.88449 0.390163 9.329136 M 0.0 **** 0.0
3725 O 6.341327 41.290114 37.755428 O 0.0 **** 0.0
3726 H 6.149776 40.531392 37.204177 H 0.0 **** 0.0
3727 H 6.704036 41.939241 37.15268 H 0.0 **** 0.0
3728 M 6.363237 41.276084 37.607702 M 0.0 **** 0.0
3729 O 41.202559 36.29912 32.21648 O 0.0 **** 0.0
3730 H 40.987468 37.18098 32.520269 H 0.0 **** 0.0
3731 H 40.356919 35.855874 32.148255 H 0.0 **** 0.0
3732 M 41.066772 36.355268 32.246635 M 0.0 **** 0.0
3733 O 37.30421 11.192616 7.155254 O 0.0 **** 0.0
3734 H 36.829876 12.021885 7.214832 H 0.0 **** 0.0
3735 H 37.691538 11.074836 8.022625 H 0.0 **** 0.0
3736 M 37.293072 11.283695 7.273915 M 0.0 **** 0.0
3737 O 11.08486 41.887891 0.176432 O 0.0 **** 0.0
3738 H 11.463838 42.598715 0.693475 H 0.0 **** 0.0
3739 H 10.188351 42.172174 -0.001571 H 0.0 **** 0.0
3740 M 11.018609 42.015277 0.219833 M 0.0 **** 0.0
3741 O 5.207866 5.366472 23.871141 O 0.0 **** 0.0
3742 H 4.841643 4.726994 24.482023 H 0.0 **** 0.0
3743 H 6.02345 4.968196 23.567121 H 0.0 **** 0.0
3744 M 5.26539 5.233627 23.910423 M 0.0 **** 0.0
3745 O 27.574779 15.514802 25.863691 O 0.0 **** 0.0
3746 H 26.871059 15.090886 25.372466 H 0.0 **** 0.0
3747 H 28.110379 15.942112 25.195284 H 0.0 **** 0.0
3748 M 27.553258 15.515236 25.715244 M 0.0 **** 0.0
3749 O 33.36857 36.583354 33.399031 O 0.0 **** 0.0
3750 H 33.441287 36.688012 32.450354 H 0.0 **** 0.0
3751 H 32.429556 36.488635 33.558751 H 0.0 **** 0.0
3752 M 33.257673 36.584626 33.298035 M 0.0 **** 0.0
3753 O 21.334894 13.771581 0.939707 O 0.0 **** 0.0
3754 H 20.952273 14.012619 1.783348 H 0.0 **** 0.0
3755 H 22.2799 13.836551 1.077444 H 0.0 **** 0.0
3756 M 21.406887 13.810754 1.065336 M 0.0 **** 0.0
3757 O 38.885785 13.015323 7.823113 O 0.0 **** 0.0
3758 H 39.339631 13.853325 7.73364 H 0.0 **** 0.0
3759 H 39.118669 12.708635 8.699433 H 0.0 **** 0.0
3760 M 38.973695 13.083338 7.923839 M 0.0 **** 0.0
3761 O 35.620972 31.432164 15.296037 O 0.0 **** 0.0
3762 H 36.265301 30.724352 15.304492 H 0.0 **** 0.0
3763 H 35.453676 31.593326 14.367454 H 0.0 **** 0.0
3764 M 35.682038 31.362186 15.178249 M 0.0 **** 0.0
3765 O 28.641288 8.828468 35.549079 O 0.0 **** 0.0
3766 H 29.365635 8.736173 34.930184 H 0.0 **** 0.0
3767 H 28.858861 9.60911 36.058481 H 0.0 **** 0.0
3768 M 28.761866 8.916585 35.535062 M 0.0 **** 0.0
3769 O 12.619854 28.989007 35.107921 O 0.0 **** 0.0
3770 H 12.601866 29.456091 35.943229 H 0.0 **** 0.0
3771 H 11.706585 28.973944 34.821668 H 0.0 **** 0.0
3772 M 12.500641 29.046871 35.178207 M 0.0 **** 0.0
3773 O 24.917053 29.593791 47.923455 O 0.0 **** 0.0
3774 H 25.627293 30.230869 48.000395 H 0.0 **** 0.0
3775 H 24.836885 29.436197 46.982728 H 0.0 **** 0.0
3776 M 24.99771 29.655171 47.812879 M 0.0 **** 0.0
3777 O 15.795246 33.691199 13.444536 O 0.0 **** 0.0
3778 H 15.841348 34.564687 13.055792 H 0.0 **** 0.0
3779 H 14.962637 33.334457 13.135138 H 0.0 **** 0.0
3780 M 15.694563 33.757349 13.355165 M 0.0 **** 0.0
3781 O 25.387608 31.274249 15.847964 O 0.0 **** 0.0
3782 H 25.819587 30.571861 16.334045 H 0.0 **** 0.0
3783 H 24.717343 30.829836 15.328858 H 0.0 **** 0.0
3784 M 25.357105 31.127444 15.843736 M 0.0 **** 0.0
3785 O 36.944628 6.284372 27.156665 O 0.0 **** 0.0
3786 H 37.664015 6.671958 26.65818 H 0.0 **** 0.0
3787 H 37.280127 6.218875 28.050746 H 0.0 **** 0.0
3788 M 37.079667 6.325603 27.207306 M 0.0 **** 0.0
3789 O 45.770805 15.988042 25.147434 O 0.0 **** 0.0
3790 H 45.012785 15.719482 24.62829 H 0.0 **** 0.0
3791 H 46.052015 16.813326 24.752393 H 0.0 **** 0.0
3792 M 45.709768 16.05931 25.030407 M 0.0 **** 0.0
3793 O 6.307815 34.160322 47.989895 O 0.0 **** 0.0
3794 H 7.19325 34.523957 47.991242 H 0.0 **** 0.0
3795 H 5.733816 34.926205 48.003211 H 0.0 **** 0.0
3796 M 6.347683 34.304914 47.991772 M 0.0 **** 0.0
3797 O 36.028263 24.382599 31.817489 O 0.0 **** 0.0
3798 H 35.232176 24.830754 32.103199 H 0.0 **** 0.0
3799 H 35.732531 23.509892 31.558348 H 0.0 **** 0.0
3800 M 35.888497 24.328251 31.82089 M 0.0 **** 0.0
3801 O 4.087613 7.265621 12.26306 O 0.0 **** 0.0
3802 H 3.42259 6.766939 11.788413 H 0.0 **** 0.0
3803 H 4.383046 6.673778 12.95492 H 0.0 **** 0.0
3804 M 4.040301 7.12602 12.290866 M 0.0 **** 0.0
3805 O 35.555158 31.060297 37.163526 O 0.0 **** 0.0
3806 H 36.470282 31.265863 36.972424 H 0.0 **** 0.0
3807 H 35.233299 30.636158 36.368075 H 0.0 **** 0.0
3808 M 35.631104 31.032317 37.037235 M 0.0 **** 0.0
3809 O 13.550112 46.445044 31.582699 O 0.0 **** 0.0
3810 H 14.417607 46.107242 31.360054 H 0.0 **** 0.0
3811 H 12.944018 45.897628 31.083487 H 0.0 **** 0.0
3812 M 13.583575 46.331725 31.490292 M 0.0 **** 0.0
3813 O 42.583137 6.527759 22.604685 O 0.0 **** 0.0
3814 H 42.383707 6.017297 23.389468 H 0.0 **** 0.0
3815 H 41.766606 6.983936 22.401192 H 0.0 **** 0.0
3816 M 42.453081 6.52081 22.679097 M 0.0 **** 0.0
3817 O 18.735275 10.941592 25.145407 O 0.0 **** 0.0
3818 H 19.205844 10.424464 24.491669 H 0.0 **** 0.0
3819 H 17.81637 10.702306 25.024641 H 0.0 **** 0.0
3820 M 18.677882 10.844761 25.046261 M 0.0 **** 0.0
3821 O 21.456856 22.986208 26.582396 O 0.0 **** 0.0
3822 H 20.614269 23.43051 26.488204 H 0.0 **** 0.0
3823 H 21.331713 22.140558 26.151763 H 0.0 **** 0.0
3824 M 21.332974 22.93483 26.515212 M 0.0 **** 0.0
3825 O 31.236749 34.542824 30.018684 O 0.0 **** 0.0
3826 H 31.232644 34.909194 30.902983 H 0.0 **** 0.0
3827 H 30.661702 33.779506 30.072488 H 0.0 **** 0.0
3828 M 31.16261 34.49201 30.138773 M 0.0 **** 0.0
3829 O 20.068083 34.381704 42.605672 O 0.0 **** 0.0
3830 H 20.294097 33.585312 42.125145 H 0.0 **** 0.0
3831 H 20.580511 35.070755 42.182759 H 0.0 **** 0.0
3832 M 20.162613 34.367963 42.49002 M 0.0 **** 0.0
3833 O 41.524268 46.256534 35.58478 O 0.0 **** 0.0
3834 H 41.381529 45.561244 34.942575 H 0.0 **** 0.0
3835 H 41.075014 45.951189 36.37292 H 0.0 **** 0.0
3836 M 41.448485 46.12844 35.603461 M 0.0 **** 0.0
3837 O 27.142076 4.034273 2.630954 O 0.0 **** 0.0
3838 H 27.9949 4.455891 2.52532 H 0.0 **** 0.0
3839 H 27.20308 3.576029 3.469119 H 0.0 **** 0.0
3840 M 27.259058 4.029585 2.724727 M 0.0 **** 0.0
3841 O 10.978465 23.671524 31.505367 O 0.0 **** 0.0
3842 H 10.604452 22.790715 31.48258 H 0.0 **** 0.0
3843 H 10.219332 24.254555 31.509976 H 0.0 **** 0.0
3844 M 10.833408 23.633405 31.50304 M 0.0 **** 0.0
3845 O 30.19801 36.036563 37.900355 O 0.0 **** 0.0
3846 H 31.097379 35.799815 37.673828 H 0.0 **** 0.0
3847 H 30.190585 36.993605 37.884739 H 0.0 **** 0.0
3848 M 30.31219 36.128769 37.869357 M 0.0 **** 0.0
3849 O 19.802143 20.969804 9.535616 O 0.0 **** 0.0
3850 H 19.299012 21.784091 9.540431 H 0.0 **** 0.0
3851 H 19.14067 20.278781 9.569801 H 0.0 **** 0.0
3852 M 19.653059 20.985583 9.540608 M 0.0 **** 0.0
3853 O 32.459084 23.406775 18.728825 O 0.0 **** 0.0
3854 H 32.897684 23.083467 17.94185 H 0.0 **** 0.0
3855 H 32.424279 24.356097 18.611324 H 0.0 **** 0.0
3856 M 32.510775 23.486913 18.613041 M 0.0 **** 0.0
3857 O 39.619205 10.476801 47.909277 O 0.0 **** 0.0
3858 H 39.284623 10.582796 47.018744 H 0.0 **** 0.0
3859 H 40.283392 11.160196 47.999032 H 0.0 **** 0.0
3860 M 39.661399 10.577853 47.806768 M 0.0 **** 0.0
3861 O 30.583299 39.894806 35.606037 O 0.0 **** 0.0
3862 H 31.37619 39.578243 36.038864 H 0.0 **** 0.0
3863 H 29.924591 39.225867 35.792726 H 0.0 **** 0.0
3864 M 30.600476 39.768649 35.685343 M 0.0 **** 0.0
3865 O 3.517235 17.291897 17.666248 O 0.0 **** 0.0
3866 H 3.961994 17.112442 16.837867 H 0.0 **** 0.0
3867 H 3.379058 18.239068 17.664181 H 0.0 **** 0.0
3868 M 3.556481 17.390174 17.55994 M 0.0 **** 0.0
3869 O 8.877343 13.837486 46.252658 O 0.0 **** 0.0
3870 H 8.777756 13.530435 45.35153 H 0.0 **** 0.0
3871 H 9.292192 14.696066 46.169181 H 0.0 **** 0.0
3872 M 8.917701 13.908088 46.126616 M 0.0 **** 0.0
3873 O 5.618691 20.492642 6.695856 O 0.0 **** 0.0
3874 H 4.689063 20.325237 6.540949 H 0.0 **** 0.0
3875 H 5.980687 19.638019 6.929966 H 0.0 **** 0.0
3876 M 5.546027 20.36181 6.705995 M 0.0 **** 0.0
3877 O 31.716137 37.887917 6.872681 O 0.0 **** 0.0
3878 H 31.603806 36.960693 7.082124 H 0.0 **** 0.0
3879 H 32.577948 37.937847 6.459139 H 0.0 **** 0.0
3880 M 31.81208 37.775612 6.846554 M 0.0 **** 0.0
3881 O 20.699972 33.770066 14.178274 O 0.0 **** 0.0
3882 H 19.824465 33.423327 14.349993 H 0.0 **** 0.0
3883 H 20.563903 34.707285 14.039227 H 0.0 **** 0.0
3884 M 20.570478 33.845655 14.182456 M 0.0 **** 0.0
3885 O 30.642603 35.133195 9.455733 O 0.0 **** 0.0
3886 H 29.851334 35.346855 8.961293 H 0.0 **** 0.0
3887 H 30.573079 34.193768 9.625647 H 0.0 **** 0.0
3888 M 30.53241 35.040288 9.41419 M 0.0 **** 0.0
3889 O 22.995884 28.951891 8.788517 O 0.0 **** 0.0
3890 H 22.679289 29.855215 8.790148 H 0.0 **** 0.0
3891 H 23.949733 29.031892 8.788447 H 0.0 **** 0.0
3892 M 23.07746 29.077769 8.788717 M 0.0 **** 0.0
3893 O 16.493957 27.013086 31.732494 O 0.0 **** 0.0
3894 H 15.831885 26.487025 31.283999 H 0.0 **** 0.0
3895 H 16.016319 27.449446 32.437958 H 0.0 **** 0.0
3896 M 16.34806 27.001603 31.765389 M 0.0 **** 0.0
3897 O 31.015996 0.282534 34.713957 O 0.0 **** 0.0
3898 H 31.881432 0.215518 35.117391 H 0.0 **** 0.0
3899 H 30.519078 0.848646 35.304566 H 0.0 **** 0.0
3900 M 31.063171 0.346425 34.841207 M 0.0 **** 0.0
3901 O 47.096659 0.232196 10.434937 O 0.0 **** 0.0
3902 H 47.426647 0.279417 11.332215 H 0.0 **** 0.0
3903 H 46.173233 -0.000883 10.530791 H 0.0 **** 0.0
3904 M 47.020692 0.208404 10.562071 M 0.0 **** 0.0
3905 O 24.526841 32.028499 27.190056 O 0.0 **** 0.0
3906 H 23.573378 32.089538 27.131653 H 0.0 **** 0.0
3907 H 24.701019 31.094114 27.303263 H 0.0 **** 0.0
3908 M 24.427083 31.9167 27.197072 M 0.0 **** 0.0
3909 O 47.06449 10.103288 16.972355 O 0.0 **** 0.0
3910 H 47.216367 11.034336 16.810147 H 0.0 **** 0.0
3911 H 47.824718 9.821155 17.480963 H 0.0 **** 0.0
3912 M 47.181251 10.186357 17.016699 M 0.0 **** 0.0
3913 O 43.719643 2.672251 30.450759 O 0.0 **** 0.0
3914 H 44.214391 1.871637 30.276199 H 0.0 **** 0.0
3915 H 44.339903 3.243793 30.903357 H 0.0 **** 0.0
3916 M 43.862378 2.642927 30.486351 M 0.0 **** 0.0
3917 O 2.055689 21.123068 46.164061 O 0.0 **** 0.0
3918 H 1.204938 21.56115 46.140918 H 0.0 **** 0.0
3919 H 2.680943 21.822893 46.352559 H 0.0 **** 0.0
3920 M 2.026823 21.268735 46.185229 M 0.0 **** 0.0
3921 O 19.767195 0.580512 23.785742 O 0.0 **** 0.0
3922 H 20.69177 0.684511 24.01063 H 0.0 **** 0.0
3923 H 19.424203 1.473814 23.76129 H 0.0 **** 0.0
3924 M 19.841645 0.708179 23.811401 M 0.0 **** 0.0
3925 O 45.525849 46.564059 28.991908 O 0.0 **** 0.0
3926 H 46.237611 45.9884 29.271624 H 0.0 **** 0.0
3927 H 45.965273 47.296461 28.559794 H 0.0 **** 0.0
3928 M 45.673215 46.584124 28.972399 M 0.0 **** 0.0
3929 O 46.457829 38.597603 33.930569 O 0.0 **** 0.0
3930 H 45.727203 38.65157 34.546606 H 0.0 **** 0.0
3931 H 46.751042 39.502781 33.82613 H 0.0 **** 0.0
3932 M 46.401835 38.720386 33.99606 M 0.0 **** 0.0
3933 O 18.938452 13.325529 2.712225 O 0.0 **** 0.0
3934 H 18.338868 13.624376 2.028545 H 0.0 **** 0.0
3935 H 18.66813 13.805432 3.495071 H 0.0 **** 0.0
3936 M 18.827093 13.425219 2.72492 M 0.0 **** 0.0
3937 O 21.608173 34.015726 26.309462 O 0.0 **** 0.0
3938 H 22.537281 33.928067 26.522307 H 0.0 **** 0.0
3939 H 21.311644 33.118787 26.155195 H 0.0 **** 0.0
3940 M 21.689151 33.889685 26.31696 M 0.0 **** 0.0
3941 O 14.619125 19.843504 24.759495 O 0.0 **** 0.0
3942 H 14.979318 19.820145 23.872961 H 0.0 **** 0.0
3943 H 14.001148 19.113032 24.786782 H 0.0 **** 0.0
3944 M 14.586125 19.747004 24.649501 M 0.0 **** 0.0
3945 O 13.770236 20.444799 15.805818 O 0.0 **** 0.0
3946 H 14.650868 20.768738 15.616663 H 0.0 **** 0.0
3947 H 13.193547 21.177942 15.590968 H 0.0 **** 0.0
3948 M 13.809145 20.580119 15.7541 M 0.0 **** 0.0
3949 O 41.262306 45.192213 41.008724 O 0.0 **** 0.0
3950 H 40.328775 45.352906 40.871152 H 0.0 **** 0.0
3951 H 41.628114 46.05494 41.20396 H 0.0 **** 0.0
3952 M 41.18963 45.323224 41.016106 M 0.0 **** 0.0
3953 O 24.927028 4.416677 47.478319 O 0.0 **** 0.0
3954 H 25.047308 3.59029 47.946128 H 0.0 **** 0.0
3955 H 25.310591 4.261829 46.61511 H 0.0 **** 0.0
3956 M 24.991526 4.291067 47.427703 M 0.0 **** 0.0
3957 O 32.485097 18.295916 29.526016 O 0.0 **** 0.0
3958 H 33.139104 17.662314 29.821062 H 0.0 **** 0.0
3959 H 32.983102 19.097203 29.364278 H 0.0 **** 0.0
3960 M 32.632569 18.317382 29.543081 M 0.0 **** 0.0
3961 O 38.777723 21.927349 27.529469 O 0.0 **** 0.0
3962 H 37.908882 21.878429 27.130782 H 0.0 **** 0.0
3963 H 38.752591 22.721698 28.062955 H 0.0 **** 0.0
3964 M 38.663283 22.022773 27.546725 M 0.0 **** 0.0
3965 O 4.710845 45.81242 21.465249 O 0.0 **** 0.0
3966 H 3.872825 46.046971 21.06658 H 0.0 **** 0.0
3967 H 5.366209 46.247276 20.919697 H 0.0 **** 0.0
3968 M 4.687463 45.898112 21.344376 M 0.0 **** 0.0
3969 O 27.261113 38.390376 30.563099 O 0.0 **** 0.0
3970 H 26.386369 38.002217 30.543489 H 0.0 **** 0.0
3971 H 27.840346 37.665039 30.796776 H 0.0 **** 0.0
3972 M 27.223284 38.247834 30.590503 M 0.0 **** 0.0
3973 O 34.888984 12.172363 16.06538 O 0.0 **** 0.0
3974 H 34.895612 11.721493 16.909715 H 0.0 **** 0.0
3975 H 35.493955 12.905247 16.179918 H 0.0 **** 0.0
3976 M 34.967276 12.208464 16.188128 M 0.0 **** 0.0
3977 O 25.693652 30.061153 38.425189 O 0.0 **** 0.0
3978 H 25.233608 30.057303 37.5858 H 0.0 **** 0.0
3979 H 26.144089 30.905433 38.448118 H 0.0 **** 0.0
3980 M 25.692422 30.168739 38.320672 M 0.0 **** 0.0
3981 O 19.139282 15.84791 0.896299 O 0.0 **** 0.0
3982 H 18.394469 16.202796 0.410977 H 0.0 **** 0.0
3983 H 19.255554 14.964926 0.545517 H 0.0 **** 0.0
3984 M 19.058821 15.780307 0.789267 M 0.0 **** 0.0
3985 O 29.268538 17.443898 33.125446 O 0.0 **** 0.0
3986 H 28.497947 18.010933 33.095641 H 0.0 **** 0.0
3987 H 28.951661 16.592321 32.824392 H 0.0 **** 0.0
3988 M 29.129329 17.407473 33.083092 M 0.0 **** 0.0
3989 O 12.293595 46.875854 29.223415 O 0.0 **** 0.0
3990 H 11.49651 47.385262 29.369656 H 0.0 **** 0.0
3991 H 11.988014 46.06142 28.823983 H 0.0 **** 0.0
3992 M 12.15244 46.836807 29.191003 M 0.0 **** 0.0
3993 O 10.955571 0.147102 38.96402 O 0.0 **** 0.0
3994 H 10.02142 -0.004961 39.107083 H 0.0 **** 0.0
3995 H 11.049485 1.099476 38.983814 H 0.0 **** 0.0
3996 M 10.84801 0.249552 38.984868 M 0.0 **** 0.0
3997 O 8.688573 25.883368 5.976182 O 0.0 **** 0.0
3998 H 7.985329 25.622161 5.381667 H 0.0 **** 0.0
3999 H 9.49238 25.726489 5.48069 H 0.0 **** 0.0
4000 M 8.701447 25.829848 5.836647 M 0.0 **** 0.0
4001 O 32.56596 1.676631 22.428888 O 0.0 **** 0.0
4002 H 32.256636 2.582425 22.438081 H 0.0 **** 0.0
4003 H 33.518356 1.748897 22.366049 H 0.0 **** 0.0
4004 M 32.648282 1.801835 22.422021 M 0.0 **** 0.0
4005 O 25.026081 10.749567 42.23733 O 0.0 **** 0.0
4006 H 24.645528 11.284636 42.933828 H 0.0 **** 0.0
4007 H 24.555611 9.917608 42.289589 H 0.0 **** 0.0
4008 M 24.917139 10.711561 42.333181 M 0.0 **** 0.0
4009 O 25.81681 15.76533 39.172095 O 0.0 **** 0.0
4010 H 25.772023 16.308766 39.958797 H 0.0 **** 0.0
4011 H 26.050911 16.37499 38.472281 H 0.0 **** 0.0
4012 M 25.841044 15.912941 39.183218 M 0.0 **** 0.0
4013 O 39.977507 30.56143 -0.029898 O 0.0 **** 0.0
4014 H 39.023179 30.488976 -0.014512 H 0.0 **** 0.0
4015 H 40.169227 31.322951 0.517421 H 0.0 **** 0.0
4016 M 39.879884 30.64964 0.042135 M 0.0 **** 0.0
4017 O 1.265209 47.304845 5.240342 O 0.0 **** 0.0
4018 H 0.867584 47.588738 6.063463 H 0.0 **** 0.0
4019 H 1.894445 47.994046 5.027522 H 0.0 **** 0.0
4020 M 1.294858 47.429414 5.318468 M 0.0 **** 0.0
4021 O 45.82014 0.186938 46.338249 O 0.0 **** 0.0
4022 H 45.908582 1.065429 45.968572 H 0.0 **** 0.0
4023 H 44.905248 -0.047783 46.182983 H 0.0 **** 0.0
4024 M 45.714344 0.269349 46.271049 M 0.0 **** 0.0
4025 O 37.788215 33.932604 45.358625 O 0.0 **** 0.0
4026 H 38.532573 34.473069 45.09394 H 0.0 **** 0.0
4027 H 37.024905 34.495512 45.229319 H 0.0 **** 0.0
4028 M 37.785789 34.073849 45.308189 M 0.0 **** 0.0
4029 O 35.000096 16.157429 32.057527 O 0.0 **** 0.0
4030 H 35.346961 15.266414 32.012741 H 0.0 **** 0.0
4031 H 34.049816 16.046879 32.026293 H 0.0 **** 0.0
4032 M 34.922852 16.029216 32.047796 M 0.0 **** 0.0
4033 O 34.023524 46.429606 23.491609 O 0.0 **** 0.0
4034 H 34.860749 46.837481 23.712791 H 0.0 **** 0.0
4035 H 34.166936 45.494166 23.635186 H 0.0 **** 0.0
4036 M 34.149058 46.362071 23.538303 M 0.0 **** 0.0
4037 O 36.748141 37.459276 23.010217 O 0.0 **** 0.0
4038 H 36.209689 36.816613 23.472043 H 0.0 **** 0.0
4039 H 36.120685 38.094443 22.665121 H 0.0 **** 0.0
4040 M 36.59889 37.458316 23.02516 M 0.0 **** 0.0
4041 O 18.254323 14.989804 44.055985 O 0.0 **** 0.0
4042 H 17.50171 14.424618 43.881721 H 0.0 **** 0.0
4043 H 18.922065 14.698509 43.435101 H 0.0 **** 0.0
4044 M 18.243458 14.880164 43.954196 M 0.0 **** 0.0
4045 O 18.850698 31.815515 39.822465 O 0.0 **** 0.0
4046 H 18.823421 31.230057 39.065679 H 0.0 **** 0.0
4047 H 18.047797 32.332284 39.75517 H 0.0 **** 0.0
4048 M 18.744425 31.806722 39.716972 M 0.0 **** 0.0
4049 O 5.922203 32.061177 2.027499 O 0.0 **** 0.0
4050 H 6.239664 31.161097 1.95468 H 0.0 **** 0.0
4051 H 6.067114 32.437731 1.159492 H 0.0 **** 0.0
4052 M 5.981393 31.994159 1.907061 M 0.0 **** 0.0
4053 O 25.958388 35.445009 37.724099 O 0.0 **** 0.0
4054 H 26.064952 35.987798 38.505286 H 0.0 **** 0.0
4055 H 26.763203 34.928813 37.678915 H 0.0 **** 0.0
4056 M 26.075056 35.448414 37.818316 M 0.0 **** 0.0
4057 O 5.067238 34.958497 4.837351 O 0.0 **** 0.0
4058 H 4.467775 34.473736 4.270007 H 0.0 **** 0.0
4059 H 4.642168 34.954291 5.694979 H 0.0 **** 0.0
4060 M 4.936085 34.895903 4.874511 M 0.0 **** 0.0
4061 O 7.476802 17.032226 25.165532 O 0.0 **** 0.0
4062 H 7.488548 17.938921 25.472118 H 0.0 **** 0.0
4063 H 6.67278 16.665061 25.532909 H 0.0 **** 0.0
4064 M 7.375381 17.101293 25.251808 M 0.0 **** 0.0
4065 O 47.096562 15.75561 15.832551 O 0.0 **** 0.0
4066 H 48.046896 15.669376 15.757329 H 0.0 **** 0.0
4067 H 46.913587 16.65109 15.548186 H 0.0 **** 0.0
4068 M 47.194794 15.859203 15.78652 M 0.0 **** 0.0
4069 O 26.409367 25.863143 24.051502 O 0.0 **** 0.0
4070 H 27.020416 26.377073 24.579445 H 0.0 **** 0.0
4071 H 26.961483 25.424993 23.403875 H 0.0 **** 0.0
4072 M 26.558267 25.872844 24.036181 M 0.0 **** 0.0
4073 O 4.371888 17.696612 32.058487 O 0.0 **** 0.0
4074 H 5.281154 17.56136 32.325266 H 0.0 **** 0.0
4075 H 4.105946 18.497669 32.50994 H 0.0 **** 0.0
4076 M 4.454241 17.781843 32.150429 M 0.0 **** 0.0
4077 O 30.858119 6.493788 29.127202 O 0.0 **** 0.0
4078 H 31.256097 6.07433 28.36438 H 0.0 **** 0.0
4079 H 30.044465 6.010186 29.269768 H 0.0 **** 0.0
4080 M 30.804907 6.378185 29.047802 M 0.0 **** 0.0
4081 O 11.619755 5.543912 17.889841 O 0.0 **** 0.0
4082 H 12.469044 5.982586 17.939864 H 0.0 **** 0.0
4083 H 11.67102 4.846469 18.543427 H 0.0 **** 0.0
4084 M 11.735038 5.510786 17.979912 M 0.0 **** 0.0
4085 O 13.72631 7.540045 28.200228 O 0.0 **** 0.0
4086 H 14.411906 8.165406 28.434982 H 0.0 **** 0.0
4087 H 14.192607 6.717546 28.050922 H 0.0 **** 0.0
4088 M 13.873767 7.514809 28.211166 M 0.0 **** 0.0
4089 O 42.238182 44.182834 5.980246 O 0.0 **** 0.0
4090 H 42.682367 43.799438 5.223982 H 0.0 **** 0.0
4091 H 41.584483 43.530109 6.230961 H 0.0 **** 0.0
4092 M 42.211361 44.050197 5.915529 M 0.0 **** 0.0
4093 O 5.734869 0.608675 30.87326 O 0.0 **** 0.0
4094 H 6.474538 0.002414 30.833703 H 0.0 **** 0.0
4095 H 4.974296 0.049349 31.031096 H 0.0 **** 0.0
4096 M 5.732193 0.459466 30.888401 M 0.0 **** 0.0
4097 O 18.078283 36.821894 19.467876 O 0.0 **** 0.0
4098 H 18.790935 37.266848 19.926539 H 0.0 **** 0.0
4099 H 18.517814 36.206103 18.881495 H 0.0 **** 0.0
4100 M 18.225777 36.800024 19.451526 M 0.0 **** 0.0
4101 O 41.73438 9.025131 29.389692 O 0.0 **** 0.0
4102 H 41.5506 9.950057 29.5539 H 0.0 **** 0.0
4103 H 40.899254 8.663503 29.093011 H 0.0 **** 0.0
4104 M 41.603947 9.09724 29.372733 M 0.0 **** 0.0
4105 O 10.381645 15.803633 3.853039 O 0.0 **** 0.0
4106 H 10.620713 16.102421 2.975656 H 0.0 **** 0.0
4107 H 9.792285 16.480934 4.184924 H 0.0 **** 0.0
4108 M 10.336804 15.928585 3.783209 M 0.0 **** 0.0
4109 O 28.190583 33.191115 24.596574 O 0.0 **** 0.0
4110 H 29.002762 32.685924 24.559489 H 0.0 **** 0.0
4111 H 28.47721 34.100267 24.683271 H 0.0 **** 0.0
4112 M 28.331244 33.242827 24.602925 M 0.0 **** 0.0
4113 O 30.72202 1.749893 2.693107 O 0.0 **** 0.0
4114 H 31.138894 2.488181 3.137377 H 0.0 **** 0.0
4115 H 29.795852 1.987735 2.649847 H 0.0 **** 0.0
4116 M 30.656824 1.87485 2.744441 M 0.0 **** 0.0
4117 O 10.015277 21.04588 29.268241 O 0.0 **** 0.0
4118 H 10.501647 20.586773 29.952999 H 0.0 **** 0.0
4119 H 10.114394 21.973147 29.484067 H 0.0 **** 0.0
4120 M 10.090227 21.10581 29.383527 M 0.0 **** 0.0
4121 O 4.389668 5.911375 16.798454 O 0.0 **** 0.0
4122 H 3.738458 6.611298 16.750893 H 0.0 **** 0.0
4123 H 5.218307 6.339521 16.583336 H 0.0 **** 0.0
4124 M 4.412381 6.055782 16.764828 M 0.0 **** 0.0
4125 O 40.111397 6.912345 14.343029 O 0.0 **** 0.0
4126 H 39.292276 6.420576 14.284442 H 0.0 **** 0.0
4127 H 39.837349 7.823722 14.445594 H 0.0 **** 0.0
4128 M 39.971458 6.96606 14.348658 M 0.0 **** 0.0
4129 O 2.671757 28.87985 12.851769 O 0.0 **** 0.0
4130 H 1.753094 29.082397 12.674958 H 0.0 **** 0.0
4131 H 3.114946 29.727654 12.819513 H 0.0 **** 0.0
4132 M 2.61089 29.014308 12.825006 M 0.0 **** 0.0
4133 O 34.738821 21.616547 10.906747 O 0.0 **** 0.0
4134 H 34.692313 20.761258 10.479493 H 0.0 **** 0.0
4135 H 35.674879 21.811246 10.952763 H 0.0 **** 0.0
4136 M 34.852695 21.531983 10.857944 M 0.0 **** 0.0
4137 O 46.242942 20.119434 1.101014 O 0.0 **** 0.0
4138 H 46.342976 20.985479 0.705809 H 0.0 **** 0.0
4139 H 46.765185 20.159467 1.902194 H 0.0 **** 0.0
4140 M 46.322601 20.235423 1.152984 M 0.0 **** 0.0
4141 O 24.82489 13.603946 34.592832 O 0.0 **** 0.0
4142 H 24.700973 12.855874 35.177009 H 0.0 **** 0.0
4143 H 25.72458 13.51618 34.278055 H 0.0 **** 0.0
4144 M 24.924199 13.496948 34.627319 M 0.0 **** 0.0
4145 O 38.348064 33.531783 33.651877 O 0.0 **** 0.0
4146 H 37.499576 33.793483 33.294372 H 0.0 **** 0.0
4147 H 38.619658 34.27338 34.192708 H 0.0 **** 0.0
4148 M 38.274214 33.660217 33.675345 M 0.0 **** 0.0
4149 O 26.98212 29.464397 2.316605 O 0.0 **** 0.0
4150 H 27.327674 30.356374 2.351231 H 0.0 **** 0.0
4151 H 27.660781 28.96142 1.866425 H 0.0 **** 0.0
4152 M 27.113232 29.514194 2.263409 M 0.0 **** 0.0
4153 O 42.214249 28.104886 28.533763 O 0.0 **** 0.0
4154 H 41.260872 28.123453 28.45036 H 0.0 **** 0.0
4155 H 42.477531 29.023766 28.483061 H 0.0 **** 0.0
4156 M 42.125908 28.224891 28.516596 M 0.0 **** 0.0
4157 O 37.725451 28.5638 3.513828 O 0.0 **** 0.0
4158 H 37.229987 27.747249 3.450675 H 0.0 **** 0.0
4159 H 37.066283 29.23005 3.708347 H 0.0 **** 0.0
4160 M 37.577643 28.54456 3.530645 M 0.0 **** 0.0
4161 O 39.440426 28.52361 33.479314 O 0.0 **** 0.0
4162 H 38.804626 29.229012 33.359333 H 0.0 **** 0.0
4163 H 38.919695 27.721527 33.4377 H 0.0 **** 0.0
4164 M 39.292375 28.511234 33.458628 M 0.0 **** 0.0
4165 O 21.244006 26.519166 28.118789 O 0.0 **** 0.0
4166 H 21.408441 25.594112 27.935853 H 0.0 **** 0.0
4167 H 22.068797 26.842404 28.481372 H 0.0 **** 0.0
4168 M 21.370639 26.442126 28.141786 M 0.0 **** 0.0
4169 O 43.045408 38.45564 34.137578 O 0.0 **** 0.0
4170 H 43.444741 38.93145 34.865841 H 0.0 **** 0.0
4171 H 42.407887 39.068527 33.771292 H 0.0 **** 0.0
4172 M 43.014917 38.595007 34.183916 M 0.0 **** 0.0
4173 O 11.194101 42.259665 40.659902 O 0.0 **** 0.0
4174 H 10.336359 41.841299 40.733915 H 0.0 **** 0.0
4175 H 11.819988 41.540197 40.742725 H 0.0 **** 0.0
4176 M 11.164421 42.114008 40.679979 M 0.0 **** 0.0
4177 O 4.360979 46.751845 35.778644 O 0.0 **** 0.0
4178 H 4.29134 46.691829 36.731417 H 0.0 **** 0.0
4179 H 5.272777 46.529722 35.590192 H 0.0 **** 0.0
4180 M 4.468786 46.715728 35.876487 M 0.0 **** 0.0
4181 O 40.421722 23.053237 23.318121 O 0.0 **** 0.0
4182 H 40.096827 22.165987 23.471283 H 0.0 **** 0.0
4183 H 39.632308 23.578857 23.188594 H 0.0 **** 0.0
4184 M 40.279077 23.006944 23.321146 M 0.0 **** 0.0
4185 O 9.665465 44.726975 47.147819 O 0.0 **** 0.0
4186 H 8.922663 44.299614 47.574242 H 0.0 **** 0.0
4187 H 9.896157 45.44801 47.733582 H 0.0 **** 0.0
4188 M 9.599909 44.764569 47.277392 M 0.0 **** 0.0
4189 O 16.712233 9.376049 19.188952 O 0.0 **** 0.0
4190 H 16.469732 8.73849 19.860473 H 0.0 **** 0.0
4191 H 17.559229 9.071325 18.863422 H 0.0 **** 0.0
4192 M 16.789616 9.255425 19.233243 M 0.0 **** 0.0
4193 O 24.52462 30.750272 29.689163 O 0.0 **** 0.0
4194 H 23.873784 30.098255 29.949 H 0.0 **** 0.0
4195 H 24.140057 31.58855 29.945348 H 0.0 **** 0.0
4196 M 24.392076 30.774115 29.755221 M 0.0 **** 0.0
4197 O 21.686891 1.994513 38.792203 O 0.0 **** 0.0
4198 H 20.764015 2.043739 38.542994 H 0.0 **** 0.0
4199 H 21.930932 1.083226 38.630247 H 0.0 **** 0.0
4200 M 21.599992 1.884158 38.739568 M 0.0 **** 0.0
4201 O 34.964694 8.092263 47.802495 O 0.0 **** 0.0
4202 H 34.885991 9.007008 48.073191 H 0.0 **** 0.0
4203 H 34.06274 7.806414 47.657591 H 0.0 **** 0.0
4204 M 34.839158 8.17277 47.818598 M 0.0 **** 0.0
4205 O 28.337682 18.01058 1.316412 O 0.0 **** 0.0
4206 H 27.866752 18.336301 2.083458 H 0.0 **** 0.0
4207 H 28.280674 17.057661 1.386579 H 0.0 **** 0.0
4208 M 28.270099 17.930291 1.423586 M 0.0 **** 0.0
4209 O 44.277791 41.457442 27.125013 O 0.0 **** 0.0
4210 H 44.586757 42.335658 26.902516 H 0.0 **** 0.0
4211 H 45.076444 40.937261 27.2133 H 0.0 **** 0.0
4212 M 44.41958 41.503275 27.107832 M 0.0 **** 0.0
4213 O 22.530585 12.101911 18.362509 O 0.0 **** 0.0
4214 H 23.320773 11.896386 17.862918 H 0.0 **** 0.0
4215 H 21.999323 12.628606 17.765365 H 0.0 **** 0.0
4216 M 22.563731 12.143025 18.222113 M 0.0 **** 0.0
4217 O 24.875573 6.73869 34.885558 O 0.0 **** 0.0
4218 H 24.281587 7.432766 35.171333 H 0.0 **** 0.0
4219 H 24.299447 6.010866 34.651935 H 0.0 **** 0.0
4220 M 24.725784 6.73437 34.892234 M 0.0 **** 0.0
4221 O 9.961918 15.558779 22.415811 O 0.0 **** 0.0
4222 H 9.470995 15.953434 21.695068 H 0.0 **** 0.0
4223 H 9.290642 15.274884 23.036312 H 0.0 **** 0.0
4224 M 9.813142 15.572957 22.402979 M 0.0 **** 0.0
4225 O 41.927525 11.004318 15.076422 O 0.0 **** 0.0
4226 H 41.887805 10.13718 15.479811 H 0.0 **** 0.0
4227 H 41.58374 11.596236 15.745506 H 0.0 **** 0.0
4228 M 41.878432 10.969087 15.213712 M 0.0 **** 0.0
4229 O 32.196249 2.794343 41.126822 O 0.0 **** 0.0
4230 H 32.124234 1.946793 40.687844 H 0.0 **** 0.0
4231 H 31.550188 2.755034 41.832008 H 0.0 **** 0.0
4232 M 32.104326 2.680814 41.1609 M 0.0 **** 0.0
4233 O 37.427832 43.236929 26.435943 O 0.0 **** 0.0
4234 H 37.921201 42.659458 27.018474 H 0.0 **** 0.0
4235 H 36.854915 42.648847 25.943851 H 0.0 **** 0.0
4236 M 37.417648 43.087724 26.44752 M 0.0 **** 0.0
4237 O 48.04373 29.476048 38.89882 O 0.0 **** 0.0
4238 H 47.802909 30.296011 39.329974 H 0.0 **** 0.0
4239 H 47.253575 29.211527 38.427745 H 0.0 **** 0.0
4240 M 47.911752 29.547151 38.89371 M 0.0 **** 0.0
4241 O 39.808438 27.897611 36.195204 O 0.0 **** 0.0
4242 H 40.265474 28.679467 35.885288 H 0.0 **** 0.0
4243 H 40.387543 27.17239 35.960853 H 0.0 **** 0.0
4244 M 39.941077 27.904861 36.125531 M 0.0 **** 0.0
4245 O 44.476829 47.050064 40.878123 O 0.0 **** 0.0
4246 H 43.92369 46.30731 40.636087 H 0.0 **** 0.0
4247 H 43.929342 47.577544 41.459717 H 0.0 **** 0.0
4248 M 44.335935 47.022506 40.921591 M 0.0 **** 0.0
4249 O 30.289464 18.59495 41.600052 O 0.0 **** 0.0
4250 H 29.406351 18.424632 41.927668 H 0.0 **** 0.0
4251 H 30.180643 18.687317 40.653556 H 0.0 **** 0.0
4252 M 30.162484 18.584971 41.520828 M 0.0 **** 0.0
4253 O 6.109233 12.368171 31.693202 O 0.0 **** 0.0
4254 H 7.036388 12.373802 31.455334 H 0.0 **** 0.0
4255 H 5.768449 13.194272 31.350198 H 0.0 **** 0.0
4256 M 6.184296 12.474643 31.618843 M 0.0 **** 0.0
4257 O 13.101226 36.870751 41.094323 O 0.0 **** 0.0
4258 H 12.788933 37.476939 41.766065 H 0.0 **** 0.0
4259 H 13.463677 36.133747 41.585936 H 0.0 **** 0.0
4260 M 13.107647 36.854005 41.243247 M 0.0 **** 0.0
4261 O 16.254293 11.09831 47.995141 O 0.0 **** 0.0
4262 H 16.891738 11.799757 47.861481 H 0.0 **** 0.0
4263 H 15.647538 11.182048 47.25957 H 0.0 **** 0.0
4264 M 16.258222 11.198823 47.883868 M 0.0 **** 0.0
4265 O 43.613392 44.398188 24.641835 O 0.0 **** 0.0
4266 H 43.842951 44.920775 23.873437 H 0.0 **** 0.0
4267 H 43.909181 43.513443 24.427444 H 0.0 **** 0.0
4268 M 43.680643 44.351827 24.516025 M 0.0 **** 0.0
4269 O 8.243077 21.627627 31.619183 O 0.0 **** 0.0
4270 H 8.428759 22.515289 31.312903 H 0.0 **** 0.0
4271 H 9.07428 21.162409 31.52483 H 0.0 **** 0.0
4272 M 8.373251 21.681705 31.567897 M 0.0 **** 0.0
4273 O 22.005085 18.433365 27.800867 O 0.0 **** 0.0
4274 H 22.314556 18.945442 28.548017 H 0.0 **** 0.0
4275 H 21.300383 18.96033 27.424128 H 0.0 **** 0.0
4276 M 21.95449 18.566375 27.848284 M 0.0 **** 0.0
4277 O 8.631939 44.076522 42.042037 O 0.0 **** 0.0
4278 H 8.365405 43.965489 42.954648 H 0.0 **** 0.0
4279 H 8.716519 43.18408 41.706444 H 0.0 **** 0.0
4280 M 8.608647 43.948065 42.115902 M 0.0 **** 0.0
4281 O 9.964605 35.475401 4.347409 O 0.0 **** 0.0
4282 H 9.384041 35.293802 3.608359 H 0.0 **** 0.0
4283 H 9.846859 36.409285 4.52126 H 0.0 **** 0.0
4284 M 9.875213 35.571703 4.275057 M 0.0 **** 0.0
4285 O 12.76983 28.35916 8.387344 O 0.0 **** 0.0
4286 H 13.162884 28.989993 7.784196 H 0.0 **** 0.0
4287 H 11.826395 28.472843 8.272301 H 0.0 **** 0.0
4288 M 12.699375 28.454467 8.295406 M 0.0 **** 0.0
4289 O 26.402409 32.693293 18.791791 O 0.0 **** 0.0
4290 H 26.022926 32.09662 18.146654 H 0.0 **** 0.0
4291 H 27.044042 32.161311 19.262463 H 0.0 **** 0.0
4292 M 26.435968 32.548811 18.769458 M 0.0 **** 0.0
4293 O 44.751568 19.584432 37.112048 O 0.0 **** 0.0
4294 H 45.632336 19.949486 37.196971 H 0.0 **** 0.0
4295 H 44.850389 18.860621 36.493534 H 0.0 **** 0.0
4296 M 44.876967 19.538507 37.043742 M 0.0 **** 0.0
4297 O 9.881506 35.69458 12.228355 O 0.0 **** 0.0
4298 H 9.078568 36.209634 12.149369 H 0.0 **** 0.0
4299 H 9.650605 34.979552 12.821356 H 0.0 **** 0.0
4300 M 9.749162 35.66898 12.294156 M 0.0 **** 0.0
4301 O 20.431807 41.111451 42.220487 O 0.0 **** 0.0
4302 H 20.352543 40.623907 43.040394 H 0.0 **** 0.0
4303 H 21.335137 41.427998 42.21587 H 0.0 **** 0.0
4304 M 20.537298 41.089561 42.324854 M 0.0 **** 0.0
4305 O 37.559883 35.275772 1.154789 O 0.0 **** 0.0
4306 H 37.456464 35.011988 0.240485 H 0.0 **** 0.0
4307 H 38.382013 34.870128 1.430077 H 0.0 **** 0.0
4308 M 37.651887 35.190077 1.072987 M 0.0 **** 0.0
4309 O 24.997877 11.60005 40.057082 O 0.0 **** 0.0
4310 H 25.647208 11.543209 39.356107 H 0.0 **** 0.0
4311 H 24.209169 11.93097 39.627359 H 0.0 **** 0.0
4312 M 24.980035 11.635136 39.912338 M 0.0 **** 0.0
4313 O 37.982794 43.569213 39.202488 O 0.0 **** 0.0
4314 H 38.561505 43.793027 38.473633 H 0.0 **** 0.0
4315 H 37.267752 43.077256 38.798853 H 0.0 **** 0.0
4316 M 37.965342 43.534887 39.057515 M 0.0 **** 0.0
4317 O 6.353666 18.789234 35.107992 O 0.0 **** 0.0
4318 H 5.780009 18.444665 34.423581 H 0.0 **** 0.0
4319 H 7.08666 19.180143 34.632453 H 0.0 **** 0.0
4320 M 6.374063 18.795166 34.959504 M 0.0 **** 0.0
4321 O 8.373921 23.85895 24.309826 O 0.0 **** 0.0
4322 H 8.209133 22.920431 24.218965 H 0.0 **** 0.0
4323 H 8.237054 24.037678 25.240177 H 0.0 **** 0.0
4324 M 8.335306 23.761688 24.417291 M 0.0 **** 0.0
4325 O 4.923935 32.902698 28.424218 O 0.0 **** 0.0
4326 H 5.316435 32.032142 28.358611 H 0.0 **** 0.0
4327 H 3.980891 32.744705 28.380236 H 0.0 **** 0.0
4328 M 4.853458 32.771031 28.41019 M 0.0 **** 0.0
4329 O 24.21862 23.680498 42.515099 O 0.0 **** 0.0
4330 H 24.271149 22.74053 42.342094 H 0.0 **** 0.0
4331 H 23.342002 23.92976 42.222459 H 0.0 **** 0.0
4332 M 24.113126 23.592079 42.455491 M 0.0 **** 0.0
4333 O 11.543166 27.726284 45.554598 O 0.0 **** 0.0
4334 H 12.254575 27.996901 46.135022 H 0.0 **** 0.0
4335 H 10.82134 27.509419 46.144654 H 0.0 **** 0.0
4336 M 11.541833 27.733165 45.704434 M 0.0 **** 0.0
4337 O 38.265258 39.850898 22.601436 O 0.0 **** 0.0
4338 H 38.360086 38.899171 22.56332 H 0.0 **** 0.0
4339 H 39.123403 40.166426 22.884734 H 0.0 **** 0.0
4340 M 38.38725 39.769456 22.632822 M 0.0 **** 0.0
4341 O 22.696625 40.839162 38.086415 O 0.0 **** 0.0
4342 H 22.45065 39.998994 38.473511 H 0.0 **** 0.0
4343 H 23.651224 40.804754 38.024885 H 0.0 **** 0.0
4344 M 22.787338 40.727205 38.128092 M 0.0 **** 0.0
4345 O 9.086537 43.321943 28.54059 O 0.0 **** 0.0
4346 H 9.768087 43.232506 29.206713 H 0.0 **** 0.0
4347 H 9.54632 43.655266 27.770055 H 0.0 **** 0.0
4348 M 9.232642 43.353163 28.527224 M 0.0 **** 0.0
4349 O 20.341432 8.113439 12.918409 O 0.0 **** 0.0
4350 H 21.160989 7.737651 13.239871 H 0.0 **** 0.0
4351 H 20.068083 7.525927 12.213896 H 0.0 **** 0.0
4352 M 20.411353 7.990125 12.869374 M 0.0 **** 0.0
4353 O 33.131169 18.819254 4.542588 O 0.0 **** 0.0
4354 H 32.735424 19.59618 4.937555 H 0.0 **** 0.0
4355 H 32.89233 18.102886 5.130807 H 0.0 **** 0.0
4356 M 33.049934 18.827006 4.668448 M 0.0 **** 0.0
4357 O 23.560251 31.049017 5.570773 O 0.0 **** 0.0
4358 H 24.07156 31.837474 5.388764 H 0.0 **** 0.0
4359 H 24.157018 30.32603 5.377412 H 0.0 **** 0.0
4360 M 23.702098 31.057398 5.522721 M 0.0 **** 0.0
4361 O 11.671491 43.016685 9.689251 O 0.0 **** 0.0
4362 H 11.968902 43.168893 10.586251 H 0.0 **** 0.0
4363 H 11.512602 42.073766 9.645837 H 0.0 **** 0.0
4364 M 11.689224 42.915464 9.798521 M 0.0 **** 0.0
4365 O 35.569301 12.698265 29.337882 O 0.0 **** 0.0
4366 H 35.09695 12.110546 28.748223 H 0.0 **** 0.0
4367 H 35.563819 13.543747 28.889151 H 0.0 **** 0.0
4368 M 35.508133 12.731262 29.204955 M 0.0 **** 0.0
4369 O 46.670916 37.182272 21.031844 O 0.0 **** 0.0
4370 H 46.042838 36.556963 21.393417 H 0.0 **** 0.0
4371 H 47.428676 37.12507 21.613872 H 0.0 **** 0.0
4372 M 46.687517 37.094902 21.152637 M 0.0 **** 0.0
4373 O 41.962816 25.434216 27.220619 O 0.0 **** 0.0
4374 H 42.711687 26.030217 27.234907 H 0.0 **** 0.0
4375 H 42.351948 24.560987 27.172918 H 0.0 **** 0.0
4376 M 42.108495 25.398727 27.216342 M 0.0 **** 0.0
4377 O 40.600563 41.068731 34.802836 O 0.0 **** 0.0
4378 H 40.949385 40.213405 35.053774 H 0.0 **** 0.0
4379 H 39.662165 40.920359 34.68611 H 0.0 **** 0.0
4380 M 40.52509 40.940245 34.820017 M 0.0 **** 0.0
4381 O 48.000132 25.975183 40.322503 O 0.0 **** 0.0
4382 H 47.601455 26.225728 39.489129 H 0.0 **** 0.0
4383 H 47.294488 25.546608 40.806878 H 0.0 **** 0.0
4384 M 47.858765 25.952393 40.277827 M 0.0 **** 0.0
4385 O 34.934812 47.211596 13.537849 O 0.0 **** 0.0
4386 H 35.151458 46.579752 12.852236 H 0.0 **** 0.0
4387 H 35.758433 47.666388 13.714034 H 0.0 **** 0.0
4388 M 35.067979 47.188931 13.472636 M 0.0 **** 0.0
4389 O 7.885794 28.778545 24.828313 O 0.0 **** 0.0
4390 H 8.671684 28.273116 24.620594 H 0.0 **** 0.0
4391 H 8.145528 29.69054 24.697804 H 0.0 **** 0.0
4392 M 8.019647 28.830591 24.785015 M 0.0 **** 0.0
4393 O 11.785702 1.103358 24.379567 O 0.0 **** 0.0
4394 H 11.792935 1.071868 25.33622 H 0.0 **** 0.0
4395 H 12.186174 0.277066 24.109214 H 0.0 **** 0.0
4396 M 11.837893 0.993551 24.467422 M 0.0 **** 0.0
4397 O 15.654762 5.234447 9.397287 O 0.0 **** 0.0
4398 H 15.563968 6.187329 9.397096 H 0.0 **** 0.0
4399 H 16.598317 5.083264 9.34183 H 0.0 **** 0.0
4400 M 15.763926 5.337074 9.390163 M 0.0 **** 0.0
4401 O 23.369072 15.886581 45.229233 O 0.0 **** 0.0
4402 H 23.492936 14.986201 44.928894 H 0.0 **** 0.0
4403 H 24.224331 16.144729 45.57292 H 0.0 **** 0.0
4404 M 23.494412 15.804367 45.234782 M 0.0 **** 0.0
4405 O 46.524479 45.602664 1.956909 O 0.0 **** 0.0
4406 H 46.724861 44.706304 1.687435 H 0.0 **** 0.0
4407 H 45.618329 45.564369 2.262939 H 0.0 **** 0.0
4408 M 46.434132 45.483016 1.961588 M 0.0 **** 0.0
4409 O 40.157191 11.020679 17.645612 O 0.0 **** 0.0
4410 H 39.724626 11.872118 17.710176 H 0.0 **** 0.0
4411 H 41.025567 11.163499 18.022114 H 0.0 **** 0.0
4412 M 40.21298 11.147957 17.702074 M 0.0 **** 0.0
4413 O 44.551002 7.214995 33.527699 O 0.0 **** 0.0
4414 H 44.382912 6.284469 33.379054 H 0.0 **** 0.0
4415 H 43.702946 7.637028 33.390155 H 0.0 **** 0.0
4416 M 44.420922 7.149902 33.491063 M 0.0 **** 0.0
4417 O 21.597789 9.83672 40.110312 O 0.0 **** 0.0
4418 H 22.140147 9.099674 40.391095 H 0.0 **** 0.0
4419 H 20.717013 9.470292 40.031615 H 0.0 **** 0.0
4420 M 21.554467 9.695462 40.136182 M 0.0 **** 0.0
4421 O 12.695045 27.855494 21.885062 O 0.0 **** 0.0
4422 H 13.054892 27.549572 22.717618 H 0.0 **** 0.0
4423 H 13.433884 27.821831 21.277433 H 0.0 **** 0.0
4424 M 12.835691 27.812023 21.913855 M 0.0 **** 0.0
4425 O 1.43863 34.993842 18.829156 O 0.0 **** 0.0
4426 H 1.08911 34.15112 19.118783 H 0.0 **** 0.0
4427 H 2.079103 35.231256 19.499722 H 0.0 **** 0.0
4428 M 1.475876 34.916355 18.952073 M 0.0 **** 0.0
4429 O 38.07724 33.906023 36.292242 O 0.0 **** 0.0
4430 H 37.818978 32.985706 36.24179 H 0.0 **** 0.0
4431 H 39.03388 33.885769 36.317893 H 0.0 **** 0.0
4432 M 38.166641 33.785618 36.289067 M 0.0 **** 0.0
4433 O 13.680972 15.16497 42.192563 O 0.0 **** 0.0
4434 H 13.820368 15.326578 43.125666 H 0.0 **** 0.0
4435 H 13.292334 15.97568 41.864024 H 0.0 **** 0.0
4436 M 13.649066 15.289439 42.269955 M 0.0 **** 0.0
4437 O 32.841997 2.52285 28.885738 O 0.0 **** 0.0
4438 H 31.94702 2.194067 28.801201 H 0.0 **** 0.0
4439 H 33.394791 1.758152 28.724858 H 0.0 **** 0.0
4440 M 32.798193 2.382871 28.854321 M 0.0 **** 0.0
4441 O 7.06205 14.457814 30.10063 O 0.0 **** 0.0
4442 H 7.785799 14.302256 30.707439 H 0.0 **** 0.0
4443 H 7.039694 15.408619 29.99247 H 0.0 **** 0.0
4444 M 7.151837 14.559615 30.164463 M 0.0 **** 0.0
4445 O 39.77226 1.025994 0.707383 O 0.0 **** 0.0
4446 H 38.946849 1.497395 0.594661 H 0.0 **** 0.0
4447 H 40.375569 1.679614 1.060974 H 0.0 **** 0.0
4448 M 39.743828 1.170011 0.738217 M 0.0 **** 0.0
4449 O 15.838349 41.868363 13.443439 O 0.0 **** 0.0
4450 H 16.567982 41.248796 13.442321 H 0.0 **** 0.0
4451 H 16.255026 42.729872 13.423163 H 0.0 **** 0.0
4452 M 15.985091 41.899334 13.4407 M 0.0 **** 0.0
4453 O 0.507229 8.444886 28.546949 O 0.0 **** 0.0
4454 H -0.009915 8.986454 29.143183 H 0.0 **** 0.0
4455 H 1.336748 8.308784 29.004775 H 0.0 **** 0.0
4456 M 0.547217 8.496791 28.681881 M 0.0 **** 0.0
4457 O 20.412272 40.610054 46.538349 O 0.0 **** 0.0
4458 H 20.306956 40.939198 45.645712 H 0.0 **** 0.0
4459 H 19.6309 40.91423 47.000046 H 0.0 **** 0.0
4460 M 20.298765 40.691127 46.483184 M 0.0 **** 0.0
4461 O 26.985015 2.252172 38.322938 O 0.0 **** 0.0
4462 H 26.254098 1.962053 38.868667 H 0.0 **** 0.0
4463 H 27.159996 3.147619 38.612395 H 0.0 **** 0.0
4464 M 26.913848 2.329662 38.429853 M 0.0 **** 0.0
4465 O 12.485161 1.365135 37.091449 O 0.0 **** 0.0
4466 H 11.844277 2.069891 37.185339 H 0.0 **** 0.0
4467 H 11.959484 0.56605 37.054634 H 0.0 **** 0.0
4468 M 12.335827 1.353059 37.098755 M 0.0 **** 0.0
4469 O 2.930951 39.788707 19.176803 O 0.0 **** 0.0
4470 H 3.501946 40.556504 19.150703 H 0.0 **** 0.0
4471 H 3.519763 39.046911 19.037995 H 0.0 **** 0.0
4472 M 3.079421 39.792036 19.155693 M 0.0 **** 0.0
4473 O 33.306315 12.350796 29.98396 O 0.0 **** 0.0
4474 H 33.391673 11.399351 29.923177 H 0.0 **** 0.0
4475 H 32.380988 12.496651 30.180746 H 0.0 **** 0.0
4476 M 33.198788 12.247671 30.00137 M 0.0 **** 0.0
4477 O 22.437203 9.610349 26.287232 O 0.0 **** 0.0
4478 H 21.954187 8.816188 26.058687 H 0.0 **** 0.0
4479 H 23.35825 9.363053 26.205104 H 0.0 **** 0.0
4480 M 22.493277 9.477029 26.247462 M 0.0 **** 0.0
4481 O 4.77157 4.765885 2.999284 O 0.0 **** 0.0
4482 H 4.719569 3.841974 2.754513 H 0.0 **** 0.0
4483 H 5.230657 4.766163 3.839206 H 0.0 **** 0.0
4484 M 4.823682 4.647648 3.075471 M 0.0 **** 0.0
4485 O 17.025869 25.536134 27.754289 O 0.0 **** 0.0
4486 H 17.07509 24.754346 28.304392 H 0.0 **** 0.0
4487 H 16.270041 25.383342 27.187185 H 0.0 **** 0.0
4488 M 16.935415 25.416496 27.752113 M 0.0 **** 0.0
4489 O 9.551819 24.883779 33.509638 O 0.0 **** 0.0
4490 H 8.838715 25.519868 33.453945 H 0.0 **** 0.0
4491 H 9.124332 24.034036 33.402774 H 0.0 **** 0.0
4492 M 9.405809 24.856429 33.488829 M 0.0 **** 0.0
4493 O 25.270665 13.11456 37.304769 O 0.0 **** 0.0
4494 H 25.031453 12.187734 37.3056 H 0.0 **** 0.0
4495 H 25.21361 13.377964 38.223241 H 0.0 **** 0.0
4496 M 25.232739 13.029634 37.422451 M 0.0 **** 0.0
4497 O 35.904111 23.754899 45.439835 O 0.0 **** 0.0
4498 H 36.104049 24.690837 45.456392 H 0.0 **** 0.0
4499 H 34.947803 23.713706 45.44213 H 0.0 **** 0.0
4500 M 35.807286 23.869438 45.442249 M 0.0 **** 0.0
4501 O 18.727808 6.094752 4.194022 O 0.0 **** 0.0
4502 H 19.583266 6.276535 3.804951 H 0.0 **** 0.0
4503 H 18.323187 6.956064 4.297226 H 0.0 **** 0.0
4504 M 18.785521 6.228281 4.157427 M 0.0 **** 0.0
4505 O 12.860584 26.851316 11.86433 O 0.0 **** 0.0
4506 H 11.979201 26.496461 11.980394 H 0.0 **** 0.0
4507 H 12.734942 27.799624 11.830341 H 0.0 **** 0.0
4508 M 12.731672 26.927286 11.874837 M 0.0 **** 0.0
4509 O 5.478463 29.508224 45.176953 O 0.0 **** 0.0
4510 H 5.470577 28.566859 45.00375 H 0.0 **** 0.0
4511 H 4.578587 29.790039 45.012538 H 0.0 **** 0.0
4512 M 5.362258 29.423793 45.133734 M 0.0 **** 0.0
4513 O 30.509277 37.136281 17.851885 O 0.0 **** 0.0
4514 H 30.897834 37.602278 18.592222 H 0.0 **** 0.0
4515 H 29.955116 36.467145 18.253622 H 0.0 **** 0.0
4516 M 30.488077 37.110277 17.998085 M 0.0 **** 0.0
4517 O 32.454984 21.819039 36.172149 O 0.0 **** 0.0
4518 H 31.520738 21.611727 36.192956 H 0.0 **** 0.0
4519 H 32.490147 22.774069 36.226103 H 0.0 **** 0.0
4520 M 32.33989 21.914756 36.181719 M 0.0 **** 0.0
4521 O 38.517767 34.353582 10.21428 O 0.0 **** 0.0
4522 H 39.409045 34.110386 9.963864 H 0.0 **** 0.0
4523 H 37.959175 33.903731 9.580374 H 0.0 **** 0.0
4524 M 38.560355 34.264864 10.101076 M 0.0 **** 0.0
4525 O 28.869812 20.621432 44.522057 O 0.0 **** 0.0
4526 H 29.598075 21.242603 44.519167 H 0.0 **** 0.0
4527 H 29.288553 19.760721 44.529851 H 0.0 **** 0.0
4528 M 29.016643 20.590768 44.522685 M 0.0 **** 0.0
4529 O 24.575253 30.973176 3.287918 O 0.0 **** 0.0
4530 H 23.619676 30.995263 3.339035 H 0.0 **** 0.0
4531 H 24.788589 30.046011 3.182648 H 0.0 **** 0.0
4532 M 24.480237 30.857315 3.280986 M 0.0 **** 0.0
4533 O 19.366831 31.373429 19.366123 O 0.0 **** 0.0
4534 H 19.727796 30.662784 18.836107 H 0.0 **** 0.0
4535 H 18.494694 31.525234 19.002035 H 0.0 **** 0.0
4536 M 19.301395 31.30189 19.251667 M 0.0 **** 0.0
4537 O 25.664607 -0.013251 33.133006 O 0.0 **** 0.0
4538 H 26.312157 0.691655 33.13703 H 0.0 **** 0.0
4539 H 24.819951 0.436688 33.151469 H 0.0 **** 0.0
4540 M 25.639375 0.134584 33.135884 M 0.0 **** 0.0
4541 O 47.407261 2.923608 29.166287 O 0.0 **** 0.0
4542 H 47.853224 2.592063 28.386913 H 0.0 **** 0.0
4543 H 46.622815 2.380509 29.243202 H 0.0 **** 0.0
4544 M 47.363931 2.811643 29.076363 M 0.0 **** 0.0
4545 O 35.911681 10.11536 23.498103 O 0.0 **** 0.0
4546 H 35.223099 9.801489 24.08425 H 0.0 **** 0.0
4547 H 35.637632 11.000574 23.258264 H 0.0 **** 0.0
4548 M 35.788452 10.188499 23.542435 M 0.0 **** 0.0
4549 O 14.34484 9.880811 11.808869 O 0.0 **** 0.0
4550 H 14.881885 10.669245 11.887508 H 0.0 **** 0.0
4551 H 13.463637 10.207756 11.627713 H 0.0 **** 0.0
4552 M 14.300783 10.023594 11.795746 M 0.0 **** 0.0
4553 O 45.291665 36.503728 33.287569 O 0.0 **** 0.0
4554 H 44.524609 37.074116 33.237453 H 0.0 **** 0.0
4555 H 45.51777 36.486763 34.217524 H 0.0 **** 0.0
4556 M 45.222416 36.574573 33.400199 M 0.0 **** 0.0
4557 O 18.725138 5.208552 20.717135 O 0.0 **** 0.0
4558 H 19.380678 5.88871 20.871671 H 0.0 **** 0.0
4559 H 19.226588 4.393664 20.690048 H 0.0 **** 0.0
4560 M 18.873248 5.191305 20.73345 M 0.0 **** 0.0
4561 O 36.32752 47.426508 10.896763 O 0.0 **** 0.0
4562 H 36.897479 48.004014 10.388962 H 0.0 **** 0.0
4563 H 35.662187 48.008401 11.264135 H 0.0 **** 0.0
4564 M 36.315311 47.574926 10.878787 M 0.0 **** 0.0
4565 O 35.286864 13.129628 32.32871 O 0.0 **** 0.0
4566 H 35.846376 13.185838 31.554103 H 0.0 **** 0.0
4567 H 34.725157 12.37215 32.164573 H 0.0 **** 0.0
4568 M 35.286583 13.039857 32.208539 M 0.0 **** 0.0
4569 O 31.789658 28.128223 33.516197 O 0.0 **** 0.0
4570 H 30.966557 27.75093 33.826655 H 0.0 **** 0.0
4571 H 31.558604 29.015843 33.242387 H 0.0 **** 0.0
4572 M 31.654713 28.193551 33.520888 M 0.0 **** 0.0
4573 O 15.818105 1.885699 5.881231 O 0.0 **** 0.0
4574 H 16.060374 2.420598 5.125309 H 0.0 **** 0.0
4575 H 14.906664 2.11871 6.057891 H 0.0 **** 0.0
4576 M 15.732442 1.984001 5.807078 M 0.0 **** 0.0
4577 O 16.502492 39.069346 13.711177 O 0.0 **** 0.0
4578 H 16.499327 38.126738 13.877637 H 0.0 **** 0.0
4579 H 16.987786 39.16674 12.891889 H 0.0 **** 0.0
4580 M 16.564211 38.961148 13.627607 M 0.0 **** 0.0
4581 O 29.356996 3.156002 14.150611 O 0.0 **** 0.0
4582 H 29.199894 4.098366 14.091457 H 0.0 **** 0.0
4583 H 30.310361 3.070723 14.143491 H 0.0 **** 0.0
4584 M 29.458927 3.26572 14.142127 M 0.0 **** 0.0
4585 O 1.374959 18.757867 39.489081 O 0.0 **** 0.0
4586 H 1.575324 19.483391 40.080434 H 0.0 **** 0.0
4587 H 1.228453 19.174057 38.63964 H 0.0 **** 0.0
4588 M 1.381854 18.904021 39.456043 M 0.0 **** 0.0
4589 O 34.180168 18.633709 34.666086 O 0.0 **** 0.0
4590 H 33.526087 19.00147 35.260358 H 0.0 **** 0.0
4591 H 34.688731 19.389302 34.371686 H 0.0 **** 0.0
4592 M 34.16154 18.777513 34.704473 M 0.0 **** 0.0
4593 O 41.947768 24.261108 31.783759 O 0.0 **** 0.0
4594 H 41.128756 24.436003 31.32023 H 0.0 **** 0.0
4595 H 41.941101 23.315874 31.934476 H 0.0 **** 0.0
4596 M 41.842071 24.162495 31.743715 M 0.0 **** 0.0
4597 O 19.843239 27.420775 13.414777 O 0.0 **** 0.0
4598 H 20.76083 27.148305 13.410843 H 0.0 **** 0.0
4599 H 19.876971 28.377331 13.42426 H 0.0 **** 0.0
4600 M 19.96502 27.508346 13.415487 M 0.0 **** 0.0
4601 O 29.897942 29.853516 28.640889 O 0.0 **** 0.0
4602 H 30.093703 30.789856 28.606607 H 0.0 **** 0.0
4603 H 30.75445 29.427761 28.604074 H 0.0 **** 0.0
4604 M 30.032646 29.918878 28.631788 M 0.0 **** 0.0
4605 O 7.723932 11.275309 44.454599 O 0.0 **** 0.0
4606 H 8.50813 11.722091 44.135774 H 0.0 **** 0.0
4607 H 7.318256 11.901262 45.054465 H 0.0 **** 0.0
4608 M 7.772388 11.412633 44.490576 M 0.0 **** 0.0
4609 O 34.240249 34.541785 12.400751 O 0.0 **** 0.0
4610 H 34.596526 33.724016 12.053549 H 0.0 **** 0.0
4611 H 34.95635 35.171118 12.314917 H 0.0 **** 0.0
4612 M 34.377527 34.517663 12.345317 M 0.0 **** 0.0
4613 O 24.519226 8.825426 39.284667 O 0.0 **** 0.0
4614 H 24.118813 9.636495 39.59782 H 0.0 **** 0.0
4615 H 25.17261 8.608054 39.94955 H 0.0 **** 0.0
4616 M 24.55161 8.901426 39.409868 M 0.0 **** 0.0
4617 O 47.304123 0.62919 14.759239 O 0.0 **** 0.0
4618 H 48.016663 -0.006054 14.688661 H 0.0 **** 0.0
4619 H 46.744459 0.446914 14.004401 H 0.0 **** 0.0
4620 M 47.323693 0.524537 14.653576 M 0.0 **** 0.0
4621 O 1.676486 24.745548 35.450201 O 0.0 **** 0.0
4622 H 2.200378 25.489665 35.746945 H 0.0 **** 0.0
4623 H 1.373877 24.997778 34.577827 H 0.0 **** 0.0
4624 M 1.704813 24.873093 35.376513 M 0.0 **** 0.0
4625 O 17.199279 39.546948 18.667252 O 0.0 **** 0.0
4626 H 17.624715 39.979772 17.927052 H 0.0 **** 0.0
4627 H 17.915432 39.126856 19.143567 H 0.0 **** 0.0
4628 M 17.345417 39.548578 18.633471 M 0.0 **** 0.0
4629 O 10.933883 11.608001 10.211622 O 0.0 **** 0.0
4630 H 10.19508 11.397648 10.782718 H 0.0 **** 0.0
4631 H 11.687066 11.191207 10.630225 H 0.0 **** 0.0
4632 M 10.935724 11.527719 10.338316 M 0.0 **** 0.0
4633 O 47.635145 5.780562 16.037634 O 0.0 **** 0.0
4634 H 46.731544 5.890272 16.333773 H 0.0 **** 0.0
4635 H 47.927835 4.970459 16.455121 H 0.0 **** 0.0
4636 M 47.55694 5.690903 16.128987 M 0.0 **** 0.0
4637 O 7.953143 38.886112 48.007217 O 0.0 **** 0.0
4638 H 8.498571 38.227132 47.577702 H 0.0 **** 0.0
4639 H 7.063145 38.687944 47.715904 H 0.0 **** 0.0
4640 M 7.909033 38.776386 47.914942 M 0.0 **** 0.0
4641 O 35.616048 25.299122 34.202196 O 0.0 **** 0.0
4642 H 35.63789 25.485305 35.140858 H 0.0 **** 0.0
4643 H 35.889537 24.384475 34.132522 H 0.0 **** 0.0
4644 M 35.653854 25.205869 34.313437 M 0.0 **** 0.0
4645 O 39.981782 11.483607 27.687895 O 0.0 **** 0.0
4646 H 39.468207 10.817307 27.231262 H 0.0 **** 0.0
4647 H 40.184437 12.133396 27.014891 H 0.0 **** 0.0
4648 M 39.941981 11.481493 27.543287 M 0.0 **** 0.0
4649 O 34.338574 30.721381 18.7747 O 0.0 **** 0.0
4650 H 33.434637 30.982368 18.950804 H 0.0 **** 0.0
4651 H 34.837674 31.072109 19.512344 H 0.0 **** 0.0
4652 M 34.28675 30.799688 18.891672 M 0.0 **** 0.0
4653 O 17.974316 44.392068 14.692487 O 0.0 **** 0.0
4654 H 18.858491 44.491017 14.339397 H 0.0 **** 0.0
4655 H 18.072641 44.54524 15.632221 H 0.0 **** 0.0
4656 M 18.100088 44.424343 14.767585 M 0.0 **** 0.0
4657 O 33.664714 6.456525 4.310946 O 0.0 **** 0.0
4658 H 34.040567 7.016022 3.631294 H 0.0 **** 0.0
4659 H 32.929986 6.018134 3.881741 H 0.0 **** 0.0
4660 M 33.618774 6.472028 4.168998 M 0.0 **** 0.0
4661 O 25.431608 33.282109 39.714181 O 0.0 **** 0.0
4662 H 26.059648 32.577139 39.8717 H 0.0 **** 0.0
4663 H 25.973348 34.055159 39.555628 H 0.0 **** 0.0
4664 M 25.581354 33.290824 39.714048 M 0.0 **** 0.0
4665 O 32.462134 4.877093 40.476322 O 0.0 **** 0.0
4666 H 33.026415 5.253721 41.151575 H 0.0 **** 0.0
4667 H 31.807879 5.554473 40.305045 H 0.0 **** 0.0
4668 M 32.450616 5.012019 40.540837 M 0.0 **** 0.0
4669 O 34.061831 44.743867 20.166542 O 0.0 **** 0.0
4670 H 34.893198 44.45092 19.793393 H 0.0 **** 0.0
4671 H 34.029657 45.68109 19.974694 H 0.0 **** 0.0
4672 M 34.164138 44.826342 20.094215 M 0.0 **** 0.0
4673 O 24.196991 9.888176 12.414241 O 0.0 **** 0.0
4674 H 25.02189 9.516463 12.726651 H 0.0 **** 0.0
4675 H 24.299385 10.832544 12.532199 H 0.0 **** 0.0
4676 M 24.315696 9.961483 12.469334 M 0.0 **** 0.0
4677 O 2.112584 34.424889 29.809763 O 0.0 **** 0.0
4678 H 2.070612 33.750939 30.488186 H 0.0 **** 0.0
4679 H 2.241728 33.938226 28.995693 H 0.0 **** 0.0
4680 M 2.123743 34.276316 29.792398 M 0.0 **** 0.0
4681 O 7.794054 3.425307 36.868168 O 0.0 **** 0.0
4682 H 7.762517 2.748111 36.192417 H 0.0 **** 0.0
4683 H 7.606912 4.239488 36.400924 H 0.0 **** 0.0
4684 M 7.766061 3.442843 36.72185 M 0.0 **** 0.0
4685 O 14.384468 17.876725 26.565733 O 0.0 **** 0.0
4686 H 15.04268 17.844391 27.259952 H 0.0 **** 0.0
4687 H 14.753411 17.345277 25.860273 H 0.0 **** 0.0
4688 M 14.515957 17.804554 26.564294 M 0.0 **** 0.0
4689 O 8.74871 20.066622 10.418379 O 0.0 **** 0.0
4690 H 9.518213 19.515509 10.561094 H 0.0 **** 0.0
4691 H 8.10789 19.754075 11.057044 H 0.0 **** 0.0
4692 M 8.765183 19.956062 10.518406 M 0.0 **** 0.0
4693 O 11.120757 13.620289 47.700105 O 0.0 **** 0.0
4694 H 11.66183 13.431563 46.933391 H 0.0 **** 0.0
4695 H 10.383623 13.013842 47.628797 H 0.0 **** 0.0
4696 M 11.095658 13.518497 47.592828 M 0.0 **** 0.0
4697 O 37.925649 13.894627 2.692479 O 0.0 **** 0.0
4698 H 37.666415 13.178144 2.113102 H 0.0 **** 0.0
4699 H 38.030081 14.647714 2.110943 H 0.0 **** 0.0
4700 M 37.905832 13.899313 2.543867 M 0.0 **** 0.0
4701 O 14.938683 38.649219 19.654131 O 0.0 **** 0.0
4702 H 14.455682 39.135797 18.986164 H 0.0 **** 0.0
4703 H 14.276917 38.412034 20.303777 H 0.0 **** 0.0
4704 M 14.792138 38.681145 19.651786 M 0.0 **** 0.0
4705 O 17.521363 17.745341 38.471507 O 0.0 **** 0.0
4706 H 18.035423 18.505577 38.74356 H 0.0 **** 0.0
4707 H 17.011014 18.055896 37.723625 H 0.0 **** 0.0
4708 M 17.521838 17.882416 38.410595 M 0.0 **** 0.0
4709 O 42.470743 10.547693 3.210301 O 0.0 **** 0.0
4710 H 41.561201 10.250764 3.182112 H 0.0 **** 0.0
4711 H 42.547481 11.006878 4.046656 H 0.0 **** 0.0
4712 M 42.364134 10.568464 3.313756 M 0.0 **** 0.0
4713 O 47.357275 6.99965 9.554128 O 0.0 **** 0.0
4714 H 46.720241 7.683429 9.761159 H 0.0 **** 0.0
4715 H 46.970543 6.197275 9.904644 H 0.0 **** 0.0
4716 M 47.22622 6.984468 9.625501 M 0.0 **** 0.0
4717 O 13.698827 27.197347 4.819847 O 0.0 **** 0.0
4718 H 13.7065 26.503048 4.16097 H 0.0 **** 0.0
4719 H 13.873716 27.998582 4.326224 H 0.0 **** 0.0
4720 M 13.722197 27.211036 4.672313 M 0.0 **** 0.0
4721 O 36.011819 29.725584 7.815748 O 0.0 **** 0.0
4722 H 35.95456 28.850356 7.432439 H 0.0 **** 0.0
4723 H 36.723091 30.151181 7.337013 H 0.0 **** 0.0
4724 M 36.095541 29.668026 7.705396 M 0.0 **** 0.0
4725 O 28.467018 16.598862 41.124657 O 0.0 **** 0.0
4726 H 27.987341 15.971078 41.665051 H 0.0 **** 0.0
4727 H 27.866836 16.807025 40.408641 H 0.0 **** 0.0
4728 M 28.328782 16.545145 41.102175 M 0.0 **** 0.0
4729 O 19.905436 4.808374 1.850339 O 0.0 **** 0.0
4730 H 19.802122 4.356163 2.687633 H 0.0 **** 0.0
4731 H 19.526804 4.210129 1.206158 H 0.0 **** 0.0
4732 M 19.843741 4.673902 1.87506 M 0.0 **** 0.0
4733 O 11.029342 8.880283 4.619686 O 0.0 **** 0.0
4734 H 10.8705 7.950518 4.456794 H 0.0 **** 0.0
4735 H 10.156257 9.271679 4.647274 H 0.0 **** 0.0
4736 M 10.897242 8.811365 4.602365 M 0.0 **** 0.0
4737 O 9.601272 42.898971 24.780906 O 0.0 **** 0.0
4738 H 8.982214 42.191472 24.60079 H 0.0 **** 0.0
4739 H 10.329718 42.471588 25.231393 H 0.0 **** 0.0
4740 M 9.615275 42.753692 24.815517 M 0.0 **** 0.0
4741 O 31.540227 35.22816 13.092085 O 0.0 **** 0.0
4742 H 32.210235 35.676269 13.608337 H 0.0 **** 0.0
4743 H 30.901283 35.909993 12.88452 H 0.0 **** 0.0
4744 M 31.544204 35.372807 13.131601 M 0.0 **** 0.0
4745 O 12.515753 23.301817 38.577442 O 0.0 **** 0.0
4746 H 13.177846 22.752766 38.157438 H 0.0 **** 0.0
4747 H 11.680639 22.921664 38.304867 H 0.0 **** 0.0
4748 M 12.493604 23.182867 38.488783 M 0.0 **** 0.0
4749 O 44.541194 32.243324 43.917334 O 0.0 **** 0.0
4750 H 44.623687 32.82508 44.672968 H 0.0 **** 0.0
4751 H 43.741247 32.532259 43.47821 H 0.0 **** 0.0
4752 M 44.449351 32.354784 43.957851 M 0.0 **** 0.0
4753 O 21.483871 42.474172 5.339085 O 0.0 **** 0.0
4754 H 21.072374 41.957574 6.031924 H 0.0 **** 0.0
4755 H 20.759798 42.9501 4.932341 H 0.0 **** 0.0
4756 M 21.338504 42.468965 5.375709 M 0.0 **** 0.0
4757 O 8.280906 33.714285 25.994342 O 0.0 **** 0.0
4758 H 8.631453 34.228885 25.267339 H 0.0 **** 0.0
4759 H 7.524836 34.215231 26.300346 H 0.0 **** 0.0
4760 M 8.228994 33.844288 25.940449 M 0.0 **** 0.0
4761 O 41.108672 41.956341 41.762815 O 0.0 **** 0.0
4762 H 41.19515 42.701957 41.16884 H 0.0 **** 0.0
4763 H 41.014221 41.198996 41.185117 H 0.0 **** 0.0
4764 M 41.107651 41.95484 41.612826 M 0.0 **** 0.0
4765 O 21.774999 28.896244 23.176832 O 0.0 **** 0.0
4766 H 21.562594 29.826918 23.10641 H 0.0 **** 0.0
4767 H 22.73095 28.864763 23.139495 H 0.0 **** 0.0
4768 M 21.870182 29.011352 23.163038 M 0.0 **** 0.0
4769 O 2.175855 27.53343 7.456592 O 0.0 **** 0.0
4770 H 2.323274 27.745633 6.534927 H 0.0 **** 0.0
4771 H 2.933892 27.90033 7.911556 H 0.0 **** 0.0
4772 M 2.291765 27.607563 7.396849 M 0.0 **** 0.0
4773 O 3.84821 9.128021 7.063155 O 0.0 **** 0.0
4774 H 3.532392 10.022272 6.933535 H 0.0 **** 0.0
4775 H 4.318475 9.157986 7.896331 H 0.0 **** 0.0
4776 M 3.867981 9.246332 7.153219 M 0.0 **** 0.0
4777 O 17.321249 21.478014 39.12293 O 0.0 **** 0.0
4778 H 16.761375 21.887196 38.463127 H 0.0 **** 0.0
4779 H 16.894723 20.642933 39.315137 H 0.0 **** 0.0
4780 M 17.194978 21.423494 39.063072 M 0.0 **** 0.0
4781 O 47.136052 22.168295 46.19942 O 0.0 **** 0.0
4782 H 47.132463 22.731071 45.425147 H 0.0 **** 0.0
4783 H 48.000123 21.756509 46.192799 H 0.0 **** 0.0
4784 M 47.246205 22.187624 46.099456 M 0.0 **** 0.0
4785 O 2.224706 22.779709 34.636321 O 0.0 **** 0.0
4786 H 2.460799 21.9234 34.993006 H 0.0 **** 0.0
4787 H 2.915558 22.974701 34.003131 H 0.0 **** 0.0
4788 M 2.343367 22.695053 34.600925 M 0.0 **** 0.0
4789 O 29.775485 11.563154 33.840774 O 0.0 **** 0.0
4790 H 29.887607 10.615498 33.915638 H 0.0 **** 0.0
4791 H 30.428953 11.929924 34.436332 H 0.0 **** 0.0
4792 M 29.87349 11.488793 33.926596 M 0.0 **** 0.0
4793 O 0.184665 38.79216 15.310637 O 0.0 **** 0.0
4794 H -0.030792 39.708011 15.134501 H 0.0 **** 0.0
4795 H 0.946448 38.831752 15.888865 H 0.0 **** 0.0
4796 M 0.254602 38.914469 15.36211 M 0.0 **** 0.0
4797 O 8.672163 7.068007 7.815291 O 0.0 **** 0.0
4798 H 9.044606 6.187326 7.771515 H 0.0 **** 0.0
4799 H 7.736504 6.926018 7.958857 H 0.0 **** 0.0
4800 M 8.600064 6.937092 7.828066 M 0.0 **** 0.0
4801 O 37.654424 25.177841 1.628107 O 0.0 **** 0.0
4802 H 38.474728 24.7005 1.752509 H 0.0 **** 0.0
4803 H 37.872885 26.087405 1.83108 H 0.0 **** 0.0
4804 M 37.787399 25.233171 1.670015 M 0.0 **** 0.0
4805 O 47.792901 32.002152 31.733948 O 0.0 **** 0.0
4806 H 47.688609 32.789232 31.199292 H 0.0 **** 0.0
4807 H 47.99993 32.331755 32.608436 H 0.0 **** 0.0
4808 M 47.806053 32.145102 31.77745 M 0.0 **** 0.0
4809 O 32.436657 1.914301 32.44025 O 0.0 **** 0.0
4810 H 31.623523 2.322529 32.737555 H 0.0 **** 0.0
4811 H 32.231198 0.980915 32.387275 H 0.0 **** 0.0
4812 M 32.306265 1.847074 32.471527 M 0.0 **** 0.0
4813 O 24.256611 28.212343 36.391997 O 0.0 **** 0.0
4814 H 24.301804 27.723803 35.5701 H 0.0 **** 0.0
4815 H 23.910754 29.069442 36.143014 H 0.0 **** 0.0
4816 M 24.218123 28.259523 36.254911 M 0.0 **** 0.0
4817 O 7.480191 26.435444 40.708113 O 0.0 **** 0.0
4818 H 6.824231 25.836566 41.064891 H 0.0 **** 0.0
4819 H 7.010159 27.260029 40.584184 H 0.0 **** 0.0
4820 M 7.33605 26.464337 40.737921 M 0.0 **** 0.0
4821 O 8.041119 10.341698 32.48651 O 0.0 **** 0.0
4822 H 7.101561 10.296499 32.309262 H 0.0 **** 0.0
4823 H 8.163189 11.186288 32.920093 H 0.0 **** 0.0
4824 M 7.93647 10.44403 32.519324 M 0.0 **** 0.0
4825 O 20.229703 42.325965 37.727523 O 0.0 **** 0.0
4826 H 20.659274 41.486012 37.565732 H 0.0 **** 0.0
4827 H 20.270896 42.437576 38.677299 H 0.0 **** 0.0
4828 M 20.289967 42.232728 37.828395 M 0.0 **** 0.0
4829 O 32.556927 18.717886 26.551247 O 0.0 **** 0.0
4830 H 31.976255 19.149174 27.178176 H 0.0 **** 0.0
4831 H 33.245211 18.328237 27.090383 H 0.0 **** 0.0
4832 M 32.570703 18.723216 26.700518 M 0.0 **** 0.0
4833 O 36.282775 31.260438 26.69309 O 0.0 **** 0.0
4834 H 36.037615 30.827327 27.510733 H 0.0 **** 0.0
4835 H 36.292315 30.558005 26.042916 H 0.0 **** 0.0
4836 M 36.252613 31.115074 26.714528 M 0.0 **** 0.0
4837 O 33.085069 26.480389 14.29271 O 0.0 **** 0.0
4838 H 33.899443 26.22571 13.858933 H 0.0 **** 0.0
4839 H 33.124302 26.051689 15.147641 H 0.0 **** 0.0
4840 M 33.194341 26.392908 14.346623 M 0.0 **** 0.0
4841 O 0.542681 23.894361 11.755103 O 0.0 **** 0.0
4842 H 0.322712 24.413941 12.52833 H 0.0 **** 0.0
4843 H 1.248625 23.317365 12.046562 H 0.0 **** 0.0
4844 M 0.604892 23.887011 11.891396 M 0.0 **** 0.0
4845 O 2.691196 15.706615 38.859086 O 0.0 **** 0.0
4846 H 3.287336 16.455304 38.841455 H 0.0 **** 0.0
4847 H 3.25866 14.951608 39.014573 H 0.0 **** 0.0
4848 M 2.840152 15.705806 38.876733 M 0.0 **** 0.0
4849 O 21.628239 24.274994 34.507771 O 0.0 **** 0.0
4850 H 22.066131 24.994104 34.963139 H 0.0 **** 0.0
4851 H 20.706583 24.362895 34.750777 H 0.0 **** 0.0
4852 M 21.566311 24.378301 34.597171 M 0.0 **** 0.0
4853 O 30.011253 39.573662 4.921787 O 0.0 **** 0.0
4854 H 29.132798 39.952785 4.893321 H 0.0 **** 0.0
4855 H 30.594303 40.302865 4.710727 H 0.0 **** 0.0
4856 M 29.973438 39.715542 4.891124 M 0.0 **** 0.0
4857 O 36.960466 23.836916 38.221424 O 0.0 **** 0.0
4858 H 36.894687 24.497548 37.531882 H 0.0 **** 0.0
4859 H 36.539422 24.239841 38.980767 H 0.0 **** 0.0
4860 M 36.898146 23.973064 38.230359 M 0.0 **** 0.0
4861 O 33.307623 33.891784 19.993456 O 0.0 **** 0.0
4862 H 33.583447 32.975206 19.987592 H 0.0 **** 0.0
4863 H 33.20823 34.118415 19.0688 H 0.0 **** 0.0
4864 M 33.330208 33.803462 19.874338 M 0.0 **** 0.0
4865 O 11.332027 45.357038 33.794402 O 0.0 **** 0.0
4866 H 11.160342 45.202968 34.723388 H 0.0 **** 0.0
4867 H 12.250714 45.11534 33.67682 H 0.0 **** 0.0
4868 M 11.427653 45.306375 33.898272 M 0.0 **** 0.0
4869 O 41.85429 45.731559 11.792218 O 0.0 **** 0.0
4870 H 41.450616 45.670387 10.926461 H 0.0 **** 0.0
4871 H 41.296734 45.194786 12.355453 H 0.0 **** 0.0
4872 M 41.731241 45.655015 11.753491 M 0.0 **** 0.0
4873 O 7.71521 42.634855 39.282205 O 0.0 **** 0.0
4874 H 8.220818 42.029169 38.740233 H 0.0 **** 0.0
4875 H 7.036744 42.090408 39.681568 H 0.0 **** 0.0
4876 M 7.693082 42.487623 39.263949 M 0.0 **** 0.0
4877 O 14.517202 24.224432 8.717889 O 0.0 **** 0.0
4878 H 14.793955 23.310258 8.65526 H 0.0 **** 0.0
4879 H 13.561089 24.188157 8.690319 H 0.0 **** 0.0
4880 M 14.430236 24.102762 8.706342 M 0.0 **** 0.0
4881 O 16.984809 37.92329 36.255577 O 0.0 **** 0.0
4882 H 16.532072 38.548636 35.689715 H 0.0 **** 0.0
4883 H 16.431652 37.860025 37.034194 H 0.0 **** 0.0
4884 M 16.856042 37.995243 36.282812 M 0.0 **** 0.0
4885 O 27.060174 27.513235 27.655556 O 0.0 **** 0.0
4886 H 26.668828 26.639832 27.63991 H 0.0 **** 0.0
4887 H 27.896065 27.40986 27.200772 H 0.0 **** 0.0
4888 M 27.117081 27.388195 27.595335 M 0.0 **** 0.0
4889 O 1.892444 41.722712 7.410499 O 0.0 **** 0.0
4890 H 2.628094 41.445766 6.864286 H 0.0 **** 0.0
4891 H 2.203154 42.515628 7.847502 H 0.0 **** 0.0
4892 M 2.026391 41.788763 7.396519 M 0.0 **** 0.0
4893 O 31.022309 23.843787 11.458226 O 0.0 **** 0.0
4894 H 30.114704 23.97179 11.182369 H 0.0 **** 0.0
4895 H 31.108666 22.896765 11.567406 H 0.0 **** 0.0
4896 M 30.917179 23.738942 11.436889 M 0.0 **** 0.0
4897 O 4.895584 41.135921 25.530909 O 0.0 **** 0.0
4898 H 5.467132 41.865624 25.769856 H 0.0 **** 0.0
4899 H 4.042528 41.54071 25.373841 H 0.0 **** 0.0
4900 M 4.859548 41.281151 25.54139 M 0.0 **** 0.0
4901 O 18.571585 31.750913 13.481973 O 0.0 **** 0.0
4902 H 19.380182 31.77216 12.970164 H 0.0 **** 0.0
4903 H 17.89551 31.500592 12.852297 H 0.0 **** 0.0
4904 M 18.58855 31.721588 13.335848 M 0.0 **** 0.0
4905 O 5.96415 29.936718 9.898275 O 0.0 **** 0.0
4906 H 5.166355 29.55982 9.527196 H 0.0 **** 0.0
4907 H 6.658219 29.329445 9.641922 H 0.0 **** 0.0
4908 M 5.950872 29.810732 9.817955 M 0.0 **** 0.0
4909 O 11.087385 2.413515 8.261275 O 0.0 **** 0.0
4910 H 11.32089 1.988323 9.086451 H 0.0 **** 0.0
4911 H 10.845168 3.305273 8.510931 H 0.0 **** 0.0
4912 M 11.08627 2.473242 8.398867 M 0.0 **** 0.0
4913 O 1.681232 37.003735 32.970218 O 0.0 **** 0.0
4914 H 0.985496 36.748882 33.576214 H 0.0 **** 0.0
4915 H 2.363896 36.345023 33.097879 H 0.0 **** 0.0
4916 M 1.679558 36.886787 33.064135 M 0.0 **** 0.0
4917 O 17.24769 0.903641 27.000753 O 0.0 **** 0.0
4918 H 18.005582 1.4883 27.002184 H 0.0 **** 0.0
4919 H 16.517722 1.457665 26.724289 H 0.0 **** 0.0
4920 M 17.251265 1.049407 26.965546 M 0.0 **** 0.0
4921 O 17.656093 30.751988 17.122333 O 0.0 **** 0.0
4922 H 18.233874 30.403353 16.443472 H 0.0 **** 0.0
4923 H 16.945304 30.113814 17.183505 H 0.0 **** 0.0
4924 M 17.639067 30.625664 17.043261 M 0.0 **** 0.0
4925 O 7.554718 41.500609 33.528403 O 0.0 **** 0.0
4926 H 8.398101 41.047935 33.52395 H 0.0 **** 0.0
4927 H 6.905114 40.797678 33.539889 H 0.0 **** 0.0
4928 M 7.579524 41.352677 33.529303 M 0.0 **** 0.0
4929 O 27.671976 40.620584 13.669633 O 0.0 **** 0.0
4930 H 28.532304 40.84616 13.315826 H 0.0 **** 0.0
4931 H 27.817136 39.807563 14.153528 H 0.0 **** 0.0
4932 M 27.800691 40.545384 13.686286 M 0.0 **** 0.0
4933 O 7.939705 16.976724 34.549298 O 0.0 **** 0.0
4934 H 7.081034 16.685071 34.242948 H 0.0 **** 0.0
4935 H 8.328474 17.414927 33.792287 H 0.0 **** 0.0
4936 M 7.879552 16.995484 34.413174 M 0.0 **** 0.0
4937 O 13.438459 37.00393 31.969352 O 0.0 **** 0.0
4938 H 14.235798 37.530602 32.024996 H 0.0 **** 0.0
4939 H 12.735276 37.643956 31.859224 H 0.0 **** 0.0
4940 M 13.450512 37.153282 31.962378 M 0.0 **** 0.0
4941 O 42.186687 5.307546 30.504503 O 0.0 **** 0.0
4942 H 41.843008 4.567131 30.004604 H 0.0 **** 0.0
4943 H 43.062746 5.030208 30.772519 H 0.0 **** 0.0
4944 M 42.254839 5.177261 30.474819 M 0.0 **** 0.0
4945 O 24.901302 22.492146 7.521366 O 0.0 **** 0.0
4946 H 25.301108 21.640864 7.699419 H 0.0 **** 0.0
4947 H 24.826142 22.527243 6.567769 H 0.0 **** 0.0
4948 M 24.942861 22.387664 7.422086 M 0.0 **** 0.0
4949 O 14.938923 26.557059 9.060244 O 0.0 **** 0.0
4950 H 15.023584 26.83181 8.147241 H 0.0 **** 0.0
4951 H 14.071819 26.864875 9.324077 H 0.0 **** 0.0
4952 M 14.838761 26.631635 8.977142 M 0.0 **** 0.0
4953 O 38.075505 13.745851 16.944009 O 0.0 **** 0.0
4954 H 37.203524 14.124838 16.833336 H 0.0 **** 0.0
4955 H 37.946457 12.805863 16.817531 H 0.0 **** 0.0
4956 M 37.947361 13.674036 16.913651 M 0.0 **** 0.0
4957 O 7.739189 31.553914 30.921652 O 0.0 **** 0.0
4958 H 8.063368 31.495334 30.022927 H 0.0 **** 0.0
4959 H 7.765746 30.653564 31.245522 H 0.0 **** 0.0
4960 M 7.784088 31.431159 30.848063 M 0.0 **** 0.0
4961 O 34.499494 42.332192 26.79047 O 0.0 **** 0.0
4962 H 35.007052 41.582134 26.480589 H 0.0 **** 0.0
4963 H 34.510579 42.251921 27.744232 H 0.0 **** 0.0
4964 M 34.565887 42.2259 26.872895 M 0.0 **** 0.0
4965 O 5.962307 40.057662 31.696426 O 0.0 **** 0.0
4966 H 5.156054 40.206301 31.20237 H 0.0 **** 0.0
4967 H 6.661268 40.153029 31.049443 H 0.0 **** 0.0
4968 M 5.948572 40.088898 31.550359 M 0.0 **** 0.0
4969 O 32.970227 22.248369 21.384244 O 0.0 **** 0.0
4970 H 33.576873 22.288004 20.644894 H 0.0 **** 0.0
4971 H 32.714203 23.158508 21.533667 H 0.0 **** 0.0
4972 M 33.015111 22.369952 21.308726 M 0.0 **** 0.0
4973 O 28.05036 40.15137 2.791184 O 0.0 **** 0.0
4974 H 28.573125 40.925234 3.001137 H 0.0 **** 0.0
4975 H 28.189939 40.014454 1.854167 H 0.0 **** 0.0
4976 M 28.135148 40.232908 2.698111 M 0.0 **** 0.0
4977 O 35.741931 21.88201 28.676264 O 0.0 **** 0.0
4978 H 36.657472 21.984418 28.936123 H 0.0 **** 0.0
4979 H 35.768189 21.82822 27.720939 H 0.0 **** 0.0
4980 M 35.862493 21.888233 28.587236 M 0.0 **** 0.0
4981 O 20.997318 7.934581 1.851977 O 0.0 **** 0.0
4982 H 20.89745 7.763811 2.788509 H 0.0 **** 0.0
4983 H 21.904267 7.696259 1.659948 H 0.0 **** 0.0
4984 M 21.100635 7.882212 1.947283 M 0.0 **** 0.0
4985 O 32.603135 4.219284 13.663463 O 0.0 **** 0.0
4986 H 31.830564 4.416051 13.133704 H 0.0 **** 0.0
4987 H 32.486688 3.306758 13.927974 H 0.0 **** 0.0
4988 M 32.48933 4.127658 13.629508 M 0.0 **** 0.0
4989 O 18.135607 42.906068 2.299267 O 0.0 **** 0.0
4990 H 17.273297 42.550862 2.083678 H 0.0 **** 0.0
4991 H 18.581164 42.193259 2.757101 H 0.0 **** 0.0
4992 M 18.082257 42.769349 2.330277 M 0.0 **** 0.0
4993 O 19.311626 17.710479 2.55244 O 0.0 **** 0.0
4994 H 18.399716 17.452561 2.417798 H 0.0 **** 0.0
4995 H 19.271657 18.650471 2.728641 H 0.0 **** 0.0
4996 M 19.189773 17.797793 2.55776 M 0.0 **** 0.0
4997 O 0.530504 19.81867 34.303314 O 0.0 **** 0.0
4998 H 0.000417 20.606738 34.422414 H 0.0 **** 0.0
4999 H 1.431327 20.139521 34.260874 H 0.0 **** 0.0
5000 M 0.577963 19.960626 34.313127 M 0.0 **** 0.0
5001 O 17.119347 47.416959 41.024571 O 0.0 **** 0.0
5002 H 16.475665 48.004921 41.419796 H 0.0 **** 0.0
5003 H 17.794742 47.999362 40.676898 H 0.0 **** 0.0
5004 M 17.123407 47.56678 41.030658 M 0.0 **** 0.0
5005 O 43.554416 24.70625 21.555835 O 0.0 **** 0.0
5006 H 42.602437 24.805929 21.550448 H 0.0 **** 0.0
5007 H 43.70465 23.818867 21.229935 H 0.0 **** 0.0
5008 M 43.451782 24.605414 21.513426 M 0.0 **** 0.0
5009 O 17.0295 12.772615 5.792561 O 0.0 **** 0.0
5010 H 17.124031 13.1378 4.912826 H 0.0 **** 0.0
5011 H 16.283907 13.240986 6.167991 H 0.0 **** 0.0
5012 M 16.946156 12.879321 5.728003 M 0.0 **** 0.0
5013 O 46.966273 42.618584 14.668152 O 0.0 **** 0.0
5014 H 47.857809 42.353693 14.89448 H 0.0 **** 0.0
5015 H 47.019691 43.567349 14.553175 H 0.0 **** 0.0
5016 M 47.087239 42.706128 14.682406 M 0.0 **** 0.0
5017 O 12.639332 18.348661 1.484115 O 0.0 **** 0.0
5018 H 13.072999 17.508287 1.336017 H 0.0 **** 0.0
5019 H 12.472697 18.690803 0.605821 H 0.0 **** 0.0
5020 M 12.673515 18.284881 1.352724 M 0.0 **** 0.0
5021 O 1.671505 34.360627 21.711894 O 0.0 **** 0.0
5022 H 2.224543 33.717566 22.155572 H 0.0 **** 0.0
5023 H 2.207301 35.152943 21.674647 H 0.0 **** 0.0
5024 M 1.810889 34.379734 21.763922 M 0.0 **** 0.0
5025 O 6.501661 19.359752 17.239174 O 0.0 **** 0.0
5026 H 5.556577 19.220228 17.298992 H 0.0 **** 0.0
5027 H 6.670366 20.108601 17.811007 H 0.0 **** 0.0
5028 M 6.402275 19.437753 17.320033 M 0.0 **** 0.0
5029 O 42.924486 16.898178 12.390986 O 0.0 **** 0.0
5030 H 43.747003 17.219287 12.760558 H 0.0 **** 0.0
5031 H 43.087596 15.972347 12.210818 H 0.0 **** 0.0
5032 M 43.050659 16.820766 12.415232 M 0.0 **** 0.0
5033 O 9.692479 22.479718 25.78236 O 0.0 **** 0.0
5034 H 10.610976 22.346954 26.016808 H 0.0 **** 0.0
5035 H 9.370664 21.604212 25.567527 H 0.0 **** 0.0
5036 M 9.768862 22.350647 25.784871 M 0.0 **** 0.0
5037 O 35.00014 42.994468 17.016575 O 0.0 **** 0.0
5038 H 35.68472 42.781037 16.38252 H 0.0 **** 0.0
5039 H 35.298674 42.597505 17.834821 H 0.0 **** 0.0
5040 M 35.125991 42.91633 17.040154 M 0.0 **** 0.0
5041 O 40.309442 27.063884 12.085856 O 0.0 **** 0.0
5042 H 39.961517 26.876629 11.214012 H 0.0 **** 0.0
5043 H 40.696398 26.236673 12.372588 H 0.0 **** 0.0
5044 M 40.314439 26.93402 12.010955 M 0.0 **** 0.0
5045 O 34.754843 11.104264 0.099497 O 0.0 **** 0.0
5046 H 34.625286 12.047439 0.000181 H 0.0 **** 0.0
5047 H 35.704791 10.996036 0.145487 H 0.0 **** 0.0
5048 M 34.859864 11.211147 0.092671 M 0.0 **** 0.0
5049 O 37.082563 23.132327 43.693948 O 0.0 **** 0.0
5050 H 36.756109 22.234621 43.632464 H 0.0 **** 0.0
5051 H 37.86188 23.142878 43.138266 H 0.0 **** 0.0
5052 M 37.140535 23.01876 43.614943 M 0.0 **** 0.0
5053 O 30.881452 36.310378 20.373071 O 0.0 **** 0.0
5054 H 30.732149 35.406726 20.094951 H 0.0 **** 0.0
5055 H 30.004684 36.688169 20.442217 H 0.0 **** 0.0
5056 M 30.750102 36.243061 20.34632 M 0.0 **** 0.0
5057 O 27.88058 2.573882 41.348385 O 0.0 **** 0.0
5058 H 27.598252 1.667259 41.227749 H 0.0 **** 0.0
5059 H 28.833676 2.541418 41.266024 H 0.0 **** 0.0
5060 M 27.966447 2.453667 41.322399 M 0.0 **** 0.0
5061 O 4.896609 43.504655 -0.001498 O 0.0 **** 0.0
5062 H 4.516192 42.629619 0.074806 H 0.0 **** 0.0
5063 H 4.160225 44.099639 0.139789 H 0.0 **** 0.0
5064 M 4.753645 43.468805 0.026357 M 0.0 **** 0.0
5065 O 24.024864 14.650588 3.415577 O 0.0 **** 0.0
5066 H 24.754331 15.269568 3.44674 H 0.0 **** 0.0
5067 H 23.770758 14.625374 2.493068 H 0.0 **** 0.0
5068 M 24.085717 14.726598 3.301474 M 0.0 **** 0.0
5069 O 34.497355 19.737057 18.672621 O 0.0 **** 0.0
5070 H 34.596746 20.485804 18.084635 H 0.0 **** 0.0
5071 H 34.374713 18.988281 18.089078 H 0.0 **** 0.0
5072 M 34.494378 19.737053 18.522651 M 0.0 **** 0.0
5073 O 4.716425 1.451337 14.492455 O 0.0 **** 0.0
5074 H 4.666554 2.403923 14.571957 H 0.0 **** 0.0
5075 H 5.653352 1.257086 14.518224 H 0.0 **** 0.0
5076 M 4.829979 1.548413 14.505931 M 0.0 **** 0.0
5077 O 36.50151 16.410995 39.068298 O 0.0 **** 0.0
5078 H 36.167048 16.828807 38.2747 H 0.0 **** 0.0
5079 H 37.40584 16.716935 39.137703 H 0.0 **** 0.0
5080 M 36.57446 16.503644 38.975592 M 0.0 **** 0.0
5081 O 20.465158 10.469527 2.984519 O 0.0 **** 0.0
5082 H 21.302477 10.139571 2.658553 H 0.0 **** 0.0
5083 H 19.827028 9.8064 2.721308 H 0.0 **** 0.0
5084 M 20.490657 10.3424 2.909097 M 0.0 **** 0.0
5085 O 33.495488 24.88926 34.661196 O 0.0 **** 0.0
5086 H 33.046196 25.734096 34.686028 H 0.0 **** 0.0
5087 H 32.790173 24.243479 34.619635 H 0.0 **** 0.0
5088 M 33.347684 24.914741 34.659055 M 0.0 **** 0.0
5089 O 1.394608 3.324875 35.003635 O 0.0 **** 0.0
5090 H 2.086837 2.678106 35.140514 H 0.0 **** 0.0
5091 H 0.776444 2.893578 34.413647 H 0.0 **** 0.0
5092 M 1.404089 3.186869 34.945631 M 0.0 **** 0.0
5093 O 9.379688 34.483691 34.995952 O 0.0 **** 0.0
5094 H 8.945124 33.70695 35.348166 H 0.0 **** 0.0
5095 H 9.516214 35.048103 35.756891 H 0.0 **** 0.0
5096 M 9.341536 34.45651 35.138449 M 0.0 **** 0.0
5097 O 12.52413 21.19115 40.183004 O 0.0 **** 0.0
5098 H 12.053466 22.016501 40.299192 H 0.0 **** 0.0
5099 H 11.837447 20.524767 40.157917 H 0.0 **** 0.0
5100 M 12.375975 21.2115 40.194666 M 0.0 **** 0.0
5101 O 41.908697 4.519569 5.36091 O 0.0 **** 0.0
5102 H 41.432095 5.347413 5.299641 H 0.0 **** 0.0
5103 H 41.254954 3.850652 5.15744 H 0.0 **** 0.0
5104 M 41.763998 4.539914 5.327021 M 0.0 **** 0.0
5105 O 37.806142 20.102692 3.917057 O 0.0 **** 0.0
5106 H 37.930536 20.098733 4.866129 H 0.0 **** 0.0
5107 H 38.18366 19.274021 3.622075 H 0.0 **** 0.0
5108 M 37.870393 19.996105 4.000789 M 0.0 **** 0.0
5109 O 3.564485 38.719888 15.130803 O 0.0 **** 0.0
5110 H 2.744146 38.706268 14.637765 H 0.0 **** 0.0
5111 H 3.926606 37.840978 15.018493 H 0.0 **** 0.0
5112 M 3.505828 38.605633 15.053311 M 0.0 **** 0.0
5113 O 3.09021 33.622994 1.662865 O 0.0 **** 0.0
5114 H 2.954211 32.676106 1.696572 H 0.0 **** 0.0
5115 H 2.330865 33.957677 1.185779 H 0.0 **** 0.0
5116 M 2.975595 33.544624 1.606107 M 0.0 **** 0.0
5117 O 3.536857 42.483614 27.891525 O 0.0 **** 0.0
5118 H 4.455595 42.34201 27.663275 H 0.0 **** 0.0
5119 H 3.180232 42.979738 27.154702 H 0.0 **** 0.0
5120 M 3.608815 42.528997 27.767983 M 0.0 **** 0.0
5121 O 30.814233 8.554865 37.366436 O 0.0 **** 0.0
5122 H 31.148082 8.088435 38.132737 H 0.0 **** 0.0
5123 H 30.054008 8.044611 37.087283 H 0.0 **** 0.0
5124 M 30.759652 8.429837 37.428797 M 0.0 **** 0.0
5125 O 17.607445 42.764926 22.781782 O 0.0 **** 0.0
5126 H 17.62362 41.843542 22.522904 H 0.0 **** 0.0
5127 H 16.702367 42.92291 23.050304 H 0.0 **** 0.0
5128 M 17.493654 42.667201 22.783016 M 0.0 **** 0.0
5129 O 31.629456 26.045666 0.47269 O 0.0 **** 0.0
5130 H 31.890055 25.398762 1.128306 H 0.0 **** 0.0
5131 H 32.315547 26.712232 0.507301 H 0.0 **** 0.0
5132 M 31.750644 26.048183 0.561048 M 0.0 **** 0.0
5133 O 33.767904 38.340767 1.41269 O 0.0 **** 0.0
5134 H 34.312833 37.562803 1.294149 H 0.0 **** 0.0
5135 H 32.873781 38.002437 1.460713 H 0.0 **** 0.0
5136 M 33.723203 38.197868 1.403663 M 0.0 **** 0.0
5137 O 23.977558 38.928264 36.369313 O 0.0 **** 0.0
5138 H 24.400486 38.198269 36.821494 H 0.0 **** 0.0
5139 H 23.040317 38.757111 36.461591 H 0.0 **** 0.0
5140 M 23.911719 38.812906 36.439011 M 0.0 **** 0.0
5141 O 30.289901 15.266908 36.551943 O 0.0 **** 0.0
5142 H 30.767545 15.387277 37.372672 H 0.0 **** 0.0
5143 H 29.546897 15.866918 36.61646 H 0.0 **** 0.0
5144 M 30.255931 15.359126 36.665265 M 0.0 **** 0.0
5145 O 21.800478 13.509527 37.845599 O 0.0 **** 0.0
5146 H 21.669454 12.576013 38.011771 H 0.0 **** 0.0
5147 H 20.935552 13.899536 37.972185 H 0.0 **** 0.0
5148 M 21.672984 13.439951 37.883076 M 0.0 **** 0.0
5149 O 41.906118 31.21423 4.825525 O 0.0 **** 0.0
5150 H 41.849462 31.549788 3.930863 H 0.0 **** 0.0
5151 H 41.033446 31.358147 5.191531 H 0.0 **** 0.0
5152 M 41.787152 31.275609 4.75785 M 0.0 **** 0.0
5153 O 15.562102 44.787741 41.211376 O 0.0 **** 0.0
5154 H 16.33238 45.160438 40.782427 H 0.0 **** 0.0
5155 H 15.902385 44.391032 42.013285 H 0.0 **** 0.0
5156 M 15.704268 44.784667 41.25912 M 0.0 **** 0.0
5157 O 40.537539 6.617298 7.863516 O 0.0 **** 0.0
5158 H 41.137915 6.777357 7.135396 H 0.0 **** 0.0
5159 H 41.107799 6.407216 8.603041 H 0.0 **** 0.0
5160 M 40.687395 6.610895 7.864976 M 0.0 **** 0.0
5161 O 23.56453 24.478686 5.910131 O 0.0 **** 0.0
5162 H 23.998667 24.598135 6.754811 H 0.0 **** 0.0
5163 H 23.038551 23.686607 6.020519 H 0.0 **** 0.0
5164 M 23.552773 24.392581 6.032392 M 0.0 **** 0.0
5165 O 34.725675 8.863196 37.669123 O 0.0 **** 0.0
5166 H 34.720406 8.391736 38.502146 H 0.0 **** 0.0
5167 H 35.629332 8.795577 37.360805 H 0.0 **** 0.0
5168 M 34.84068 8.794187 37.736292 M 0.0 **** 0.0
5169 O 5.839378 7.569712 23.139647 O 0.0 **** 0.0
5170 H 5.465009 8.206115 22.530493 H 0.0 **** 0.0
5171 H 6.748127 7.84927 23.250328 H 0.0 **** 0.0
5172 M 5.907785 7.686967 23.075836 M 0.0 **** 0.0
5173 O 30.198797 46.30009 3.979496 O 0.0 **** 0.0
5174 H 30.679466 46.011323 4.755254 H 0.0 **** 0.0
5175 H 29.341725 46.565296 4.313147 H 0.0 **** 0.0
5176 M 30.150613 46.297074 4.121515 M 0.0 **** 0.0
5177 O 5.515191 43.183867 34.734734 O 0.0 **** 0.0
5178 H 6.435335 43.376251 34.554312 H 0.0 **** 0.0
5179 H 5.183636 43.974607 35.16021 H 0.0 **** 0.0
5180 M 5.590538 43.309719 34.766104 M 0.0 **** 0.0
5181 O 8.731496 26.307828 35.811673 O 0.0 **** 0.0
5182 H 8.265227 26.808183 35.141997 H 0.0 **** 0.0
5183 H 8.511505 25.394979 35.625828 H 0.0 **** 0.0
5184 M 8.643647 26.255024 35.702156 M 0.0 **** 0.0
5185 O 15.002901 17.74335 34.081503 O 0.0 **** 0.0
5186 H 14.41464 18.035452 34.777817 H 0.0 **** 0.0
5187 H 15.069745 16.796541 34.205253 H 0.0 **** 0.0
5188 M 14.936153 17.659539 34.186482 M 0.0 **** 0.0
5189 O 5.63569 38.137303 38.738507 O 0.0 **** 0.0
5190 H 6.34783 37.567072 39.028199 H 0.0 **** 0.0
5191 H 4.862658 37.572825 38.734728 H 0.0 **** 0.0
5192 M 5.627895 37.992046 38.775107 M 0.0 **** 0.0
5193 O 42.300606 14.845723 47.987132 O 0.0 **** 0.0
5194 H 42.137433 13.902575 47.995793 H 0.0 **** 0.0
5195 H 43.254566 14.924195 47.981629 H 0.0 **** 0.0
5196 M 42.401836 14.735034 47.987537 M 0.0 **** 0.0
5197 O 15.943151 35.464843 18.685599 O 0.0 **** 0.0
5198 H 15.105907 35.189258 19.058834 H 0.0 **** 0.0
5199 H 16.000046 36.398805 18.887356 H 0.0 **** 0.0
5200 M 15.843257 35.549123 18.759205 M 0.0 **** 0.0
5201 O 47.895512 12.071222 34.180094 O 0.0 **** 0.0
5202 H 47.998027 12.687191 33.454627 H 0.0 **** 0.0
5203 H 47.995897 11.208284 33.778238 H 0.0 **** 0.0
5204 M 47.921486 12.039607 34.035783 M 0.0 **** 0.0
5205 O 37.317191 10.614975 4.247748 O 0.0 **** 0.0
5206 H 36.558558 10.734245 3.676364 H 0.0 **** 0.0
5207 H 36.942615 10.463351 5.115464 H 0.0 **** 0.0
5208 M 37.172126 10.610833 4.285682 M 0.0 **** 0.0
5209 O 21.225658 46.556386 1.064594 O 0.0 **** 0.0
5210 H 20.879279 47.214588 1.667106 H 0.0 **** 0.0
5211 H 20.790517 45.743383 1.321317 H 0.0 **** 0.0
5212 M 21.125614 46.53657 1.174587 M 0.0 **** 0.0
5213 O 11.679664 29.75114 15.631586 O 0.0 **** 0.0
5214 H 12.23823 30.522026 15.731429 H 0.0 **** 0.0
5215 H 11.917549 29.185622 16.366316 H 0.0 **** 0.0
5216 M 11.78162 29.77743 15.738422 M 0.0 **** 0.0
5217 O 17.385451 22.863031 30.705624 O 0.0 **** 0.0
5218 H 17.388635 22.537307 29.805556 H 0.0 **** 0.0
5219 H 18.073729 23.528022 30.722629 H 0.0 **** 0.0
5220 M 17.473967 22.906462 30.592581 M 0.0 **** 0.0
5221 O 37.34694 17.714673 11.799909 O 0.0 **** 0.0
5222 H 38.234338 18.062736 11.887113 H 0.0 **** 0.0
5223 H 37.147051 17.797909 10.867522 H 0.0 **** 0.0
5224 M 37.43495 17.769884 11.691715 M 0.0 **** 0.0
5225 O 13.254337 15.769408 47.370378 O 0.0 **** 0.0
5226 H 13.877183 15.422689 48.009187 H 0.0 **** 0.0
5227 H 12.407298 15.728215 47.814289 H 0.0 **** 0.0
5228 M 13.225637 15.71975 47.50898 M 0.0 **** 0.0
5229 O 8.913752 6.559255 10.201752 O 0.0 **** 0.0
5230 H 8.469057 5.780816 9.86633 H 0.0 **** 0.0
5231 H 9.634499 6.215256 10.729406 H 0.0 **** 0.0
5232 M 8.94909 6.415569 10.22636 M 0.0 **** 0.0
5233 O 36.933685 18.415156 40.75052 O 0.0 **** 0.0
5234 H 36.48262 18.554107 39.917776 H 0.0 **** 0.0
5235 H 36.261928 18.566262 41.415454 H 0.0 **** 0.0
5236 M 36.78995 18.452287 40.729038 M 0.0 **** 0.0
5237 O 26.060175 14.809515 27.710533 O 0.0 **** 0.0
5238 H 25.27775 14.259193 27.6761 H 0.0 **** 0.0
5239 H 26.736319 14.242427 28.081301 H 0.0 **** 0.0
5240 M 26.04657 14.666473 27.753588 M 0.0 **** 0.0
5241 O 12.090644 20.229659 6.54258 O 0.0 **** 0.0
5242 H 11.990329 20.861912 7.254213 H 0.0 **** 0.0
5243 H 11.303287 20.341099 6.009778 H 0.0 **** 0.0
5244 M 11.977011 20.324861 6.565472 M 0.0 **** 0.0
5245 O 31.085677 8.016542 46.863861 O 0.0 **** 0.0
5246 H 30.41339 7.44381 47.232963 H 0.0 **** 0.0
5247 H 31.888054 7.773438 47.325727 H 0.0 **** 0.0
5248 M 31.10233 7.912105 46.970235 M 0.0 **** 0.0
5249 O 18.437758 42.677141 13.173225 O 0.0 **** 0.0
5250 H 18.599451 42.0417 12.475874 H 0.0 **** 0.0
5251 H 18.489937 42.165781 13.9807 H 0.0 **** 0.0
5252 M 18.465136 42.530336 13.187322 M 0.0 **** 0.0
5253 O 9.187951 42.254495 10.97802 O 0.0 **** 0.0
5254 H 8.281826 42.549607 11.067881 H 0.0 **** 0.0
5255 H 9.35985 42.290408 10.037069 H 0.0 **** 0.0
5256 M 9.093961 42.29687 10.86907 M 0.0 **** 0.0
5257 O 2.3562 15.400796 42.32798 O 0.0 **** 0.0
5258 H 3.140687 14.852392 42.335817 H 0.0 **** 0.0
5259 H 2.660738 16.250778 42.01015 H 0.0 **** 0.0
5260 M 2.495609 15.439402 42.288297 M 0.0 **** 0.0
5261 O 39.067634 2.267693 25.633301 O 0.0 **** 0.0
5262 H 38.702246 1.383934 25.592201 H 0.0 **** 0.0
5263 H 39.955551 2.176597 25.287567 H 0.0 **** 0.0
5264 M 39.134524 2.142899 25.583782 M 0.0 **** 0.0
5265 O 28.462782 23.66694 2.401665 O 0.0 **** 0.0
5266 H 28.676908 24.498138 2.825326 H 0.0 **** 0.0
5267 H 28.226238 23.908011 1.506031 H 0.0 **** 0.0
5268 M 28.459913 23.804204 2.341246 M 0.0 **** 0.0
5269 O 3.785869 18.33363 13.273958 O 0.0 **** 0.0
5270 H 4.56649 17.962728 13.685408 H 0.0 **** 0.0
5271 H 3.054658 17.958074 13.764383 H 0.0 **** 0.0
5272 M 3.792194 18.238074 13.389409 M 0.0 **** 0.0
5273 O 29.005781 22.948153 4.652261 O 0.0 **** 0.0
5274 H 29.191665 23.206875 5.55489 H 0.0 **** 0.0
5275 H 29.710328 22.340696 4.426787 H 0.0 **** 0.0
5276 M 29.119768 22.903511 4.738946 M 0.0 **** 0.0
5277 O 44.973885 2.625436 15.287705 O 0.0 **** 0.0
5278 H 45.733374 2.051994 15.184899 H 0.0 **** 0.0
5279 H 44.219985 2.039294 15.222123 H 0.0 **** 0.0
5280 M 44.974601 2.476994 15.266149 M 0.0 **** 0.0
5281 O 17.336505 23.003495 14.864766 O 0.0 **** 0.0
5282 H 17.178919 22.189636 15.343335 H 0.0 **** 0.0
5283 H 17.863864 22.740168 14.110591 H 0.0 **** 0.0
5284 M 17.383841 22.865602 14.829485 M 0.0 **** 0.0
5285 O 4.115863 24.425285 45.742035 O 0.0 **** 0.0
5286 H 3.874087 23.509973 45.600691 H 0.0 **** 0.0
5287 H 4.905079 24.384388 46.282121 H 0.0 **** 0.0
5288 M 4.185942 24.302878 45.793079 M 0.0 **** 0.0
5289 O 26.977374 22.023031 27.539572 O 0.0 **** 0.0
5290 H 27.201045 22.814728 28.028872 H 0.0 **** 0.0
5291 H 27.038386 22.283626 26.620552 H 0.0 **** 0.0
5292 M 27.013817 22.157737 27.484562 M 0.0 **** 0.0
5293 O 26.609247 33.35462 1.525211 O 0.0 **** 0.0
5294 H 27.422741 33.00499 1.1616 H 0.0 **** 0.0
5295 H 26.711502 33.264263 2.472633 H 0.0 **** 0.0
5296 M 26.726474 33.298296 1.599947 M 0.0 **** 0.0
5297 O 0.408768 31.192826 6.598158 O 0.0 **** 0.0
5298 H -0.002966 31.911203 6.117908 H 0.0 **** 0.0
5299 H 1.264568 31.535673 6.855627 H 0.0 **** 0.0
5300 M 0.465614 31.328676 6.569639 M 0.0 **** 0.0
5301 O 47.469193 5.320972 0.61743 O 0.0 **** 0.0
5302 H 47.319292 5.523051 1.540968 H 0.0 **** 0.0
5303 H 47.892356 4.462426 0.625235 H 0.0 **** 0.0
5304 M 47.504174 5.236936 0.736653 M 0.0 **** 0.0
5305 O 16.427747 10.777807 7.992534 O 0.0 **** 0.0
5306 H 15.650077 10.379252 7.601878 H 0.0 **** 0.0
5307 H 17.13053 10.593821 7.369257 H 0.0 **** 0.0
5308 M 16.418161 10.703234 7.862738 M 0.0 **** 0.0
5309 O 34.577095 15.794306 12.806833 O 0.0 **** 0.0
5310 H 35.104993 15.066286 12.478901 H 0.0 **** 0.0
5311 H 34.065343 16.079703 12.049941 H 0.0 **** 0.0
5312 M 34.579162 15.737645 12.667962 M 0.0 **** 0.0
5313 O 45.879113 12.04749 26.877572 O 0.0 **** 0.0
5314 H 46.323882 12.809625 26.506683 H 0.0 **** 0.0
5315 H 46.546765 11.615866 27.410649 H 0.0 **** 0.0
5316 M 46.021517 12.089799 26.898334 M 0.0 **** 0.0
5317 O 18.729797 13.941708 18.343889 O 0.0 **** 0.0
5318 H 17.976985 14.502204 18.155882 H 0.0 **** 0.0
5319 H 19.380601 14.532892 18.722286 H 0.0 **** 0.0
5320 M 18.716739 14.089138 18.368261 M 0.0 **** 0.0
5321 O 20.020936 42.743128 30.670226 O 0.0 **** 0.0
5322 H 20.108644 43.676298 30.864471 H 0.0 **** 0.0
5323 H 19.10638 42.541685 30.868308 H 0.0 **** 0.0
5324 M 19.915089 42.836798 30.720449 M 0.0 **** 0.0
5325 O 8.269461 38.881771 3.393096 O 0.0 **** 0.0
5326 H 8.748054 38.08084 3.60684 H 0.0 **** 0.0
5327 H 7.393264 38.740723 3.751722 H 0.0 **** 0.0
5328 M 8.218563 38.761186 3.466367 M 0.0 **** 0.0
5329 O 9.470572 39.424359 15.75915 O 0.0 **** 0.0
5330 H 8.635255 39.891588 15.746049 H 0.0 **** 0.0
5331 H 9.230799 38.501632 15.673636 H 0.0 **** 0.0
5332 M 9.332947 39.36605 15.746526 M 0.0 **** 0.0
5333 O 15.89173 23.11446 40.660612 O 0.0 **** 0.0
5334 H 14.966581 23.318004 40.523144 H 0.0 **** 0.0
5335 H 15.923676 22.158668 40.701472 H 0.0 **** 0.0
5336 M 15.777389 23.018163 40.648245 M 0.0 **** 0.0
5337 O 47.842216 38.406299 24.957483 O 0.0 **** 0.0
5338 H 48.000122 37.649971 24.39245 H 0.0 **** 0.0
5339 H 47.851681 38.048715 25.84533 H 0.0 **** 0.0
5340 M 47.863641 38.263704 24.998807 M 0.0 **** 0.0
5341 O 4.834201 19.4627 45.355213 O 0.0 **** 0.0
5342 H 5.641955 18.962576 45.471991 H 0.0 **** 0.0
5343 H 4.335849 18.965659 44.706503 H 0.0 **** 0.0
5344 M 4.873808 19.335051 45.287119 M 0.0 **** 0.0
5345 O 0.681623 10.847668 27.294239 O 0.0 **** 0.0
5346 H 0.204766 11.677603 27.300842 H 0.0 **** 0.0
5347 H -0.002263 10.177946 27.293153 H 0.0 **** 0.0
5348 M 0.533033 10.868177 27.294945 M 0.0 **** 0.0
5349 O 43.401845 47.929202 32.868368 O 0.0 **** 0.0
5350 H 42.585376 48.000086 33.36292 H 0.0 **** 0.0
5351 H 43.176882 47.390706 32.109657 H 0.0 **** 0.0
5352 M 43.268528 47.869342 32.834552 M 0.0 **** 0.0
5353 O 21.907909 35.496683 24.174871 O 0.0 **** 0.0
5354 H 21.336552 36.262811 24.121702 H 0.0 **** 0.0
5355 H 21.30833 34.755873 24.263947 H 0.0 **** 0.0
5356 M 21.758015 35.499924 24.179467 M 0.0 **** 0.0
5357 O 11.461698 25.165581 41.187674 O 0.0 **** 0.0
5358 H 11.345324 24.476321 40.533758 H 0.0 **** 0.0
5359 H 10.813228 24.967394 41.863275 H 0.0 **** 0.0
5360 M 11.363788 25.051977 41.19045 M 0.0 **** 0.0
5361 O 16.954324 21.900422 9.816246 O 0.0 **** 0.0
5362 H 16.362616 21.667895 9.100676 H 0.0 **** 0.0
5363 H 17.31861 22.747888 9.560657 H 0.0 **** 0.0
5364 M 16.925211 21.979142 9.691926 M 0.0 **** 0.0
5365 O 10.620492 29.633965 25.525578 O 0.0 **** 0.0
5366 H 11.551538 29.412207 25.511243 H 0.0 **** 0.0
5367 H 10.509476 30.250542 24.801881 H 0.0 **** 0.0
5368 M 10.725466 29.684507 25.431101 M 0.0 **** 0.0
5369 O 47.641332 28.589422 45.604694 O 0.0 **** 0.0
5370 H 46.890046 28.623472 46.196842 H 0.0 **** 0.0
5371 H 48.000874 29.476361 45.62192 H 0.0 **** 0.0
5372 M 47.591184 28.70732 45.682702 M 0.0 **** 0.0
5373 O 3.974646 44.503556 42.091242 O 0.0 **** 0.0
5374 H 4.57122 43.775269 41.918247 H 0.0 **** 0.0
5375 H 3.154175 44.246874 41.670326 H 0.0 **** 0.0
5376 M 3.945984 44.377467 42.015214 M 0.0 **** 0.0
5377 O 17.672609 33.022417 15.919603 O 0.0 **** 0.0
5378 H 17.817937 33.503911 16.734018 H 0.0 **** 0.0
5379 H 18.464325 32.496295 15.807311 H 0.0 **** 0.0
5380 M 17.792562 33.016704 16.009484 M 0.0 **** 0.0
5381 O 35.449326 4.895931 43.175624 O 0.0 **** 0.0
5382 H 36.252863 4.376665 43.205956 H 0.0 **** 0.0
5383 H 35.746122 5.786726 42.989542 H 0.0 **** 0.0
5384 M 35.590183 4.943492 43.155686 M 0.0 **** 0.0
5385 O 28.263851 25.209632 26.667277 O 0.0 **** 0.0
5386 H 28.372632 24.276185 26.849133 H 0.0 **** 0.0
5387 H 29.106585 25.599291 26.900073 H 0.0 **** 0.0
5388 M 28.385657 25.14002 26.720358 M 0.0 **** 0.0
5389 O 37.442917 36.740311 25.291524 O 0.0 **** 0.0
5390 H 36.794344 36.63162 25.987058 H 0.0 **** 0.0
5391 H 37.425715 37.67621 25.091461 H 0.0 **** 0.0
5392 M 37.357689 36.846204 25.35495 M 0.0 **** 0.0
5393 O 34.268276 16.567391 22.068563 O 0.0 **** 0.0
5394 H 34.72172 17.401879 21.949205 H 0.0 **** 0.0
5395 H 34.966091 15.912213 22.063529 H 0.0 **** 0.0
5396 M 34.415652 16.590345 22.05264 M 0.0 **** 0.0
5397 O 43.615521 27.151122 32.45835 O 0.0 **** 0.0
5398 H 44.365295 26.600672 32.684342 H 0.0 **** 0.0
5399 H 43.866554 27.573022 31.636637 H 0.0 **** 0.0
5400 M 43.743637 27.134666 32.38209 M 0.0 **** 0.0
5401 O 41.140487 7.338176 2.554346 O 0.0 **** 0.0
5402 H 41.034425 6.433843 2.849578 H 0.0 **** 0.0
5403 H 40.816398 7.867986 3.282699 H 0.0 **** 0.0
5404 M 41.085422 7.290233 2.685378 M 0.0 **** 0.0
5405 O 5.293018 25.600183 12.06299 O 0.0 **** 0.0
5406 H 5.938985 25.000665 12.43653 H 0.0 **** 0.0
5407 H 4.55534 25.568046 12.672109 H 0.0 **** 0.0
5408 M 5.281278 25.519324 12.188783 M 0.0 **** 0.0
5409 O 19.377233 8.367826 20.540814 O 0.0 **** 0.0
5410 H 18.563662 7.879339 20.415466 H 0.0 **** 0.0
5411 H 19.950614 8.063655 19.837292 H 0.0 **** 0.0
5412 M 19.346486 8.266355 20.434708 M 0.0 **** 0.0
5413 O 31.900046 32.095125 36.77838 O 0.0 **** 0.0
5414 H 31.877622 33.051953 36.792764 H 0.0 **** 0.0
5415 H 32.832017 31.876837 36.781491 H 0.0 **** 0.0
5416 M 32.016479 32.189668 36.780619 M 0.0 **** 0.0
5417 O 15.468403 19.333138 11.986611 O 0.0 **** 0.0
5418 H 16.056176 20.084176 11.904805 H 0.0 **** 0.0
5419 H 15.671298 18.785847 11.227971 H 0.0 **** 0.0
5420 M 15.569618 19.35922 11.879024 M 0.0 **** 0.0
5421 O 18.649097 6.978807 14.969319 O 0.0 **** 0.0
5422 H 18.348022 7.37531 15.786857 H 0.0 **** 0.0
5423 H 18.11493 7.392232 14.291104 H 0.0 **** 0.0
5424 M 18.542175 7.082488 14.987154 M 0.0 **** 0.0
5425 O 15.92705 41.112818 9.253348 O 0.0 **** 0.0
5426 H 15.416239 41.057141 8.445758 H 0.0 **** 0.0
5427 H 16.832203 41.212487 8.958403 H 0.0 **** 0.0
5428 M 15.977531 41.118449 9.112209 M 0.0 **** 0.0
5429 O 37.445 46.321783 23.737798 O 0.0 **** 0.0
5430 H 37.688794 47.244858 23.669049 H 0.0 **** 0.0
5431 H 37.661206 45.952063 22.881766 H 0.0 **** 0.0
5432 M 37.503886 46.392619 23.619415 M 0.0 **** 0.0
5433 O 45.024915 10.180341 47.464944 O 0.0 **** 0.0
5434 H 45.152216 10.578636 46.603907 H 0.0 **** 0.0
5435 H 44.647619 10.879206 47.999232 H 0.0 **** 0.0
5436 M 44.992912 10.320791 47.423116 M 0.0 **** 0.0
5437 O 25.099899 4.602219 13.060562 O 0.0 **** 0.0
5438 H 25.039846 3.828472 13.620863 H 0.0 **** 0.0
5439 H 24.382562 5.165343 13.351334 H 0.0 **** 0.0
5440 M 25.000383 4.575257 13.16951 M 0.0 **** 0.0
5441 O 20.311941 11.825822 41.281227 O 0.0 **** 0.0
5442 H 21.089919 12.383474 41.279523 H 0.0 **** 0.0
5443 H 19.577311 12.438848 41.308544 H 0.0 **** 0.0
5444 M 20.31749 11.975684 41.284506 M 0.0 **** 0.0
5445 O 11.92559 18.600395 46.776721 O 0.0 **** 0.0
5446 H 11.988636 19.365692 47.348188 H 0.0 **** 0.0
5447 H 10.985198 18.461705 46.664219 H 0.0 **** 0.0
5448 M 11.813279 18.680608 46.835474 M 0.0 **** 0.0
5449 O 9.523298 47.584544 37.032406 O 0.0 **** 0.0
5450 H 9.382026 47.624771 36.086545 H 0.0 **** 0.0
5451 H 10.45776 47.759882 37.14316 H 0.0 **** 0.0
5452 M 9.624836 47.612139 36.925502 M 0.0 **** 0.0
5453 O 4.311704 40.02773 8.474311 O 0.0 **** 0.0
5454 H 3.698544 39.431783 8.044065 H 0.0 **** 0.0
5455 H 4.55543 39.578236 9.283497 H 0.0 **** 0.0
5456 M 4.264412 39.8939 8.52282 M 0.0 **** 0.0
5457 O 20.179587 26.825567 17.995678 O 0.0 **** 0.0
5458 H 20.912557 26.657334 17.403494 H 0.0 **** 0.0
5459 H 19.402364 26.756241 17.441289 H 0.0 **** 0.0
5460 M 20.173922 26.795156 17.848902 M 0.0 **** 0.0
5461 O 7.759174 25.130856 30.857361 O 0.0 **** 0.0
5462 H 8.619953 25.452546 30.589401 H 0.0 **** 0.0
5463 H 7.927918 24.629993 31.655415 H 0.0 **** 0.0
5464 M 7.890966 25.10792 30.92522 M 0.0 **** 0.0
5465 O 12.871356 44.356245 24.626673 O 0.0 **** 0.0
5466 H 11.932083 44.520532 24.710376 H 0.0 **** 0.0
5467 H 12.939922 43.40842 24.511979 H 0.0 **** 0.0
5468 M 12.759894 44.255942 24.622705 M 0.0 **** 0.0
5469 O 37.751394 47.135125 8.558789 O 0.0 **** 0.0
5470 H 38.599049 47.566205 8.449797 H 0.0 **** 0.0
5471 H 37.960404 46.201992 8.601288 H 0.0 **** 0.0
5472 M 37.88666 47.070856 8.550277 M 0.0 **** 0.0
5473 O 31.195638 3.40328 16.177845 O 0.0 **** 0.0
5474 H 30.532773 4.093133 16.147176 H 0.0 **** 0.0
5475 H 32.030179 3.87207 16.17542 H 0.0 **** 0.0
5476 M 31.217615 3.551601 16.173608 M 0.0 **** 0.0
5477 O 38.914583 27.935302 28.41751 O 0.0 **** 0.0
5478 H 38.855125 28.89054 28.432169 H 0.0 **** 0.0
5479 H 38.06389 27.636932 28.739262 H 0.0 **** 0.0
5480 M 38.798072 28.019389 28.460575 M 0.0 **** 0.0
5481 O 29.523195 47.811402 40.926611 O 0.0 **** 0.0
5482 H 30.216919 47.506974 40.341547 H 0.0 **** 0.0
5483 H 29.818769 47.558637 41.801239 H 0.0 **** 0.0
5484 M 29.649838 47.740074 40.963678 M 0.0 **** 0.0
5485 O 25.199067 15.269472 41.861899 O 0.0 **** 0.0
5486 H 25.432721 15.510333 42.758348 H 0.0 **** 0.0
5487 H 25.744448 14.507023 41.668352 H 0.0 **** 0.0
5488 M 25.298793 15.202702 41.951879 M 0.0 **** 0.0
5489 O 10.115535 15.560785 29.630465 O 0.0 **** 0.0
5490 H 9.173405 15.487146 29.478163 H 0.0 **** 0.0
5491 H 10.297756 16.497723 29.558546 H 0.0 **** 0.0
5492 M 10.018257 15.671298 29.601762 M 0.0 **** 0.0
5493 O 31.730085 2.843351 26.71014 O 0.0 **** 0.0
5494 H 32.068636 3.039604 25.836586 H 0.0 **** 0.0
5495 H 30.824385 2.571833 26.561101 H 0.0 **** 0.0
5496 M 31.657483 2.833716 26.579235 M 0.0 **** 0.0
5497 O 15.941805 41.417347 17.606633 O 0.0 **** 0.0
5498 H 15.517485 40.563821 17.694237 H 0.0 **** 0.0
5499 H 15.231164 42.016248 17.377428 H 0.0 **** 0.0
5500 M 15.796516 41.384752 17.588507 M 0.0 **** 0.0
5501 O 23.144301 44.45897 24.297929 O 0.0 **** 0.0
5502 H 23.671394 45.206434 24.58024 H 0.0 **** 0.0
5503 H 23.205924 44.468943 23.342768 H 0.0 **** 0.0
5504 M 23.219664 44.555932 24.211796 M 0.0 **** 0.0
5505 O 19.039615 26.119955 27.091555 O 0.0 **** 0.0
5506 H 19.715961 26.507586 26.536103 H 0.0 **** 0.0
5507 H 18.974339 25.212959 26.79268 H 0.0 **** 0.0
5508 M 19.11784 26.05347 26.982191 M 0.0 **** 0.0
5509 O 33.268654 16.557935 0.916779 O 0.0 **** 0.0
5510 H 33.124475 16.258028 0.019284 H 0.0 **** 0.0
5511 H 32.51701 16.222677 1.405513 H 0.0 **** 0.0
5512 M 33.153978 16.476626 0.864452 M 0.0 **** 0.0
5513 O 22.083267 12.534163 5.996113 O 0.0 **** 0.0
5514 H 22.716958 13.120471 5.582705 H 0.0 **** 0.0
5515 H 21.571068 13.101933 6.57189 H 0.0 **** 0.0
5516 M 22.098819 12.681899 6.016899 M 0.0 **** 0.0
5517 O 38.022813 22.396658 24.663531 O 0.0 **** 0.0
5518 H 38.799176 22.516363 25.210487 H 0.0 **** 0.0
5519 H 37.703215 23.284506 24.502872 H 0.0 **** 0.0
5520 M 38.081285 22.525637 24.712982 M 0.0 **** 0.0
5521 O 16.763167 28.200366 25.977307 O 0.0 **** 0.0
5522 H 17.566752 28.447148 26.435104 H 0.0 **** 0.0
5523 H 16.691356 27.255279 26.111031 H 0.0 **** 0.0
5524 M 16.856843 28.110974 26.053029 M 0.0 **** 0.0
5525 O 31.193566 17.343723 9.370043 O 0.0 **** 0.0
5526 H 30.715922 16.565623 9.657523 H 0.0 **** 0.0
5527 H 31.023867 17.994701 10.050968 H 0.0 **** 0.0
5528 M 31.110698 17.32745 9.494011 M 0.0 **** 0.0
5529 O 19.652729 26.366032 35.065237 O 0.0 **** 0.0
5530 H 19.563406 27.297113 34.861918 H 0.0 **** 0.0
5531 H 20.381474 26.324439 35.684453 H 0.0 **** 0.0
5532 M 19.734583 26.479898 35.118477 M 0.0 **** 0.0
5533 O 45.635437 2.326792 25.645627 O 0.0 **** 0.0
5534 H 46.560432 2.080671 25.651774 H 0.0 **** 0.0
5535 H 45.429231 2.462062 24.720744 H 0.0 **** 0.0
5536 M 45.727451 2.312602 25.528017 M 0.0 **** 0.0
5537 O 39.239023 26.989128 0.082338 O 0.0 **** 0.0
5538 H 38.487908 27.541168 0.299838 H 0.0 **** 0.0
5539 H 39.970359 27.601002 -0.001249 H 0.0 **** 0.0
5540 M 39.236491 27.138123 0.09948 M 0.0 **** 0.0
5541 O 21.578481 16.369688 47.775862 O 0.0 **** 0.0
5542 H 22.349211 16.901789 47.973531 H 0.0 **** 0.0
5543 H 20.835965 16.92625 48.010676 H 0.0 **** 0.0
5544 M 21.582093 16.509051 47.831225 M 0.0 **** 0.0
5545 O 11.419568 9.991463 41.028445 O 0.0 **** 0.0
5546 H 10.64449 10.033769 41.588529 H 0.0 **** 0.0
5547 H 11.70267 9.078489 41.079031 H 0.0 **** 0.0
5548 M 11.356589 9.880007 41.106618 M 0.0 **** 0.0
5549 O 0.631156 37.340036 43.804132 O 0.0 **** 0.0
5550 H 1.06422 37.912733 43.171122 H 0.0 **** 0.0
5551 H 0.410204 37.915453 44.53646 H 0.0 **** 0.0
5552 M 0.658309 37.487009 43.816846 M 0.0 **** 0.0
5553 O 20.850081 34.658544 40.036694 O 0.0 **** 0.0
5554 H 19.993964 34.23042 40.037843 H 0.0 **** 0.0
5555 H 21.479179 33.937116 40.039042 H 0.0 **** 0.0
5556 M 20.82102 34.511387 40.037142 M 0.0 **** 0.0
5557 O 35.630976 0.582926 1.851263 O 0.0 **** 0.0
5558 H 34.877953 -0.000151 1.755313 H 0.0 **** 0.0
5559 H 36.389877 -0.000128 1.832645 H 0.0 **** 0.0
5560 M 35.631728 0.433647 1.836597 M 0.0 **** 0.0
5561 O -0.000812 18.774859 26.149731 O 0.0 **** 0.0
5562 H 0.041793 19.619602 25.7016 H 0.0 **** 0.0
5563 H 0.903211 18.59381 26.407009 H 0.0 **** 0.0
5564 M 0.120368 18.85982 26.125299 M 0.0 **** 0.0
5565 O 22.396295 29.002721 31.155318 O 0.0 **** 0.0
5566 H 22.12189 28.123551 30.894567 H 0.0 **** 0.0
5567 H 22.607757 28.922163 32.085384 H 0.0 **** 0.0
5568 M 22.388238 28.879864 31.240999 M 0.0 **** 0.0
5569 O 22.42418 9.925836 11.111992 O 0.0 **** 0.0
5570 H 21.564253 9.524282 11.236525 H 0.0 **** 0.0
5571 H 22.271518 10.862813 11.234458 H 0.0 **** 0.0
5572 M 22.294556 9.994377 11.143611 M 0.0 **** 0.0
5573 O 38.887915 41.139661 3.742623 O 0.0 **** 0.0
5574 H 38.373277 41.037905 2.941984 H 0.0 **** 0.0
5575 H 39.301564 40.286224 3.87212 H 0.0 **** 0.0
5576 M 38.874987 41.017384 3.656708 M 0.0 **** 0.0
5577 O 7.125472 9.573153 16.735068 O 0.0 **** 0.0
5578 H 6.756693 8.923052 16.137072 H 0.0 **** 0.0
5579 H 8.060294 9.369462 16.764156 H 0.0 **** 0.0
5580 M 7.197933 9.463857 16.662241 M 0.0 **** 0.0
5581 O 46.812485 40.180073 19.242697 O 0.0 **** 0.0
5582 H 47.478574 40.865764 19.291515 H 0.0 **** 0.0
5583 H 46.38461 40.320832 18.398103 H 0.0 **** 0.0
5584 M 46.84298 40.285869 19.140828 M 0.0 **** 0.0
5585 O 16.123402 5.093791 15.096267 O 0.0 **** 0.0
5586 H 16.669466 4.473389 15.579117 H 0.0 **** 0.0
5587 H 15.80848 5.705098 15.762118 H 0.0 **** 0.0
5588 M 16.152991 5.092627 15.243316 M 0.0 **** 0.0
5589 O 37.021122 12.559453 47.549975 O 0.0 **** 0.0
5590 H 37.594832 13.180409 47.998862 H 0.0 **** 0.0
5591 H 37.500183 11.731051 47.571899 H 0.0 **** 0.0
5592 M 37.15589 12.532897 47.610244 M 0.0 **** 0.0
5593 O 4.774316 15.601189 47.999843 O 0.0 **** 0.0
5594 H 3.817446 15.626234 47.998856 H 0.0 **** 0.0
5595 H 5.02038 15.79447 47.095231 H 0.0 **** 0.0
5596 M 4.683324 15.629138 47.883915 M 0.0 **** 0.0
5597 O 29.789844 0.116025 3.827539 O 0.0 **** 0.0
5598 H 29.193741 0.349075 4.539281 H 0.0 **** 0.0
5599 H 30.638871 -0.000336 4.253968 H 0.0 **** 0.0
5600 M 29.822221 0.130963 3.973239 M 0.0 **** 0.0
5601 O 47.4641 22.570556 42.349553 O 0.0 **** 0.0
5602 H 47.483422 22.869529 43.258657 H 0.0 **** 0.0
5603 H 47.999864 21.77735 42.346338 H 0.0 **** 0.0
5604 M 47.535158 22.507288 42.465518 M 0.0 **** 0.0
5605 O 13.220993 45.477911 12.538112 O 0.0 **** 0.0
5606 H 12.418255 45.592083 12.029381 H 0.0 **** 0.0
5607 H 13.673883 46.317887 12.463548 H 0.0 **** 0.0
5608 M 13.176208 45.600054 12.463443 M 0.0 **** 0.0
5609 O 12.566089 2.706835 33.063463 O 0.0 **** 0.0
5610 H 11.697384 3.042252 33.284993 H 0.0 **** 0.0
5611 H 12.395757 1.886296 32.600936 H 0.0 **** 0.0
5612 M 12.433079 2.644734 33.032612 M 0.0 **** 0.0
5613 O 32.114915 28.431414 14.748453 O 0.0 **** 0.0
5614 H 32.811255 28.656485 14.131458 H 0.0 **** 0.0
5615 H 32.048777 29.193335 15.324066 H 0.0 **** 0.0
5616 M 32.195589 28.557761 14.743155 M 0.0 **** 0.0
5617 O 15.27039 42.40451 24.829776 O 0.0 **** 0.0
5618 H 15.594194 43.299358 24.932852 H 0.0 **** 0.0
5619 H 16.056436 41.859382 24.86435 H 0.0 **** 0.0
5620 M 15.412465 42.449278 24.847397 M 0.0 **** 0.0
5621 O 25.506897 7.701054 22.673577 O 0.0 **** 0.0
5622 H 25.597454 8.418316 22.046232 H 0.0 **** 0.0
5623 H 26.406548 7.445673 22.877632 H 0.0 **** 0.0
5624 M 25.633656 7.76018 22.619391 M 0.0 **** 0.0
5625 O 8.414846 20.733628 33.742758 O 0.0 **** 0.0
5626 H 9.016916 21.47719 33.713498 H 0.0 **** 0.0
5627 H 8.981936 19.96962 33.847299 H 0.0 **** 0.0
5628 M 8.564513 20.73101 33.752395 M 0.0 **** 0.0
5629 O 6.119687 33.036391 21.886976 O 0.0 **** 0.0
5630 H 7.017951 32.756673 22.063354 H 0.0 **** 0.0
5631 H 5.574677 32.393962 22.341375 H 0.0 **** 0.0
5632 M 6.164908 32.918345 21.967723 M 0.0 **** 0.0
5633 O 45.768834 36.433685 27.37156 O 0.0 **** 0.0
5634 H 46.057075 36.358839 26.461865 H 0.0 **** 0.0
5635 H 45.449157 35.55948 27.594717 H 0.0 **** 0.0
5636 M 45.76481 36.312195 27.283674 M 0.0 **** 0.0
5637 O 33.116303 45.388812 10.950969 O 0.0 **** 0.0
5638 H 33.702684 45.395508 11.707501 H 0.0 **** 0.0
5639 H 32.246392 45.243304 11.322871 H 0.0 **** 0.0
5640 M 33.080008 45.371042 11.095423 M 0.0 **** 0.0
5641 O 6.162103 42.258134 11.919316 O 0.0 **** 0.0
5642 H 6.377792 43.189644 11.964 H 0.0 **** 0.0
5643 H 5.208203 42.228859 11.993117 H 0.0 **** 0.0
5644 M 6.067603 42.373631 11.934484 M 0.0 **** 0.0
5645 O 9.016355 11.426012 20.087463 O 0.0 **** 0.0
5646 H 8.43221 11.593291 20.827072 H 0.0 **** 0.0
5647 H 9.811742 11.916835 20.294058 H 0.0 **** 0.0
5648 M 9.043397 11.510257 20.208589 M 0.0 **** 0.0
5649 O 5.104101 35.176166 15.129382 O 0.0 **** 0.0
5650 H 4.928777 35.812385 15.822719 H 0.0 **** 0.0
5651 H 4.704677 35.557212 14.347402 H 0.0 **** 0.0
5652 M 5.030526 35.306388 15.118035 M 0.0 **** 0.0
5653 O 32.072369 44.466635 45.632844 O 0.0 **** 0.0
5654 H 31.745184 43.712763 46.123614 H 0.0 **** 0.0
5655 H 33.012472 44.307926 45.547719 H 0.0 **** 0.0
5656 M 32.15083 44.349813 45.684772 M 0.0 **** 0.0
5657 O 48.002498 9.636089 36.981507 O 0.0 **** 0.0
5658 H 47.635264 9.100501 37.684724 H 0.0 **** 0.0
5659 H 48.00171 9.060935 36.216376 H 0.0 **** 0.0
5660 M 47.955387 9.4939 36.973581 M 0.0 **** 0.0
5661 O 14.548828 37.173931 44.264365 O 0.0 **** 0.0
5662 H 14.892487 37.902049 44.782024 H 0.0 **** 0.0
5663 H 14.014647 37.5911 43.588458 H 0.0 **** 0.0
5664 M 14.524439 37.320542 44.244107 M 0.0 **** 0.0
5665 O 43.998552 14.587728 9.881627 O 0.0 **** 0.0
5666 H 43.880956 14.4618 10.823191 H 0.0 **** 0.0
5667 H 44.441072 15.433118 9.805986 H 0.0 **** 0.0
5668 M 44.040146 14.679828 9.992476 M 0.0 **** 0.0
5669 O 18.525511 2.945547 7.654459 O 0.0 **** 0.0
5670 H 18.76183 3.865624 7.772103 H 0.0 **** 0.0
5671 H 17.572992 2.952581 7.560188 H 0.0 **** 0.0
5672 M 18.433828 3.064229 7.657451 M 0.0 **** 0.0
5673 O 3.025878 34.443587 37.047069 O 0.0 **** 0.0
5674 H 3.42401 33.643943 36.703138 H 0.0 **** 0.0
5675 H 3.752772 34.920523 37.447551 H 0.0 **** 0.0
5676 M 3.169896 34.402276 37.054308 M 0.0 **** 0.0
5677 O 10.31482 39.463815 28.378358 O 0.0 **** 0.0
5678 H 11.266364 39.565067 28.401649 H 0.0 **** 0.0
5679 H 9.979888 40.358014 28.311594 H 0.0 **** 0.0
5680 M 10.393754 39.591246 28.372793 M 0.0 **** 0.0
5681 O 37.120804 0.898057 18.51328 O 0.0 **** 0.0
5682 H 36.722813 1.336986 19.26506 H 0.0 **** 0.0
5683 H 37.268037 -3e-06 18.809993 H 0.0 **** 0.0
5684 M 37.088704 0.839283 18.6475 M 0.0 **** 0.0
5685 O 10.9516 40.712413 19.193644 O 0.0 **** 0.0
5686 H 11.635697 41.177698 18.712241 H 0.0 **** 0.0
5687 H 10.204469 41.310732 19.187405 H 0.0 **** 0.0
5688 M 10.943531 40.848568 19.13122 M 0.0 **** 0.0
5689 O 19.739002 30.34831 8.641725 O 0.0 **** 0.0
5690 H 18.942071 29.81895 8.611583 H 0.0 **** 0.0
5691 H 19.425678 31.252308 8.670757 H 0.0 **** 0.0
5692 M 19.596875 30.396268 8.641583 M 0.0 **** 0.0
5693 O 36.738669 41.466285 12.842416 O 0.0 **** 0.0
5694 H 36.898003 40.703928 12.285951 H 0.0 **** 0.0
5695 H 36.748956 41.118787 13.73425 H 0.0 **** 0.0
5696 M 36.760383 41.32421 12.885348 M 0.0 **** 0.0
5697 O 6.544052 19.82635 2.289737 O 0.0 **** 0.0
5698 H 5.868535 20.224547 1.740789 H 0.0 **** 0.0
5699 H 7.327809 20.350172 2.123712 H 0.0 **** 0.0
5700 M 6.557908 19.94438 2.198212 M 0.0 **** 0.0
5701 O 20.791796 18.403147 38.735209 O 0.0 **** 0.0
5702 H 21.685807 18.487657 38.403802 H 0.0 **** 0.0
5703 H 20.898479 18.132821 39.647224 H 0.0 **** 0.0
5704 M 20.919897 18.37936 38.809534 M 0.0 **** 0.0
5705 O 16.944577 15.448815 37.480809 O 0.0 **** 0.0
5706 H 17.353861 16.026193 36.836332 H 0.0 **** 0.0
5707 H 16.004511 15.583272 37.360707 H 0.0 **** 0.0
5708 M 16.876631 15.539939 37.382933 M 0.0 **** 0.0
5709 O 40.331455 8.634316 17.688929 O 0.0 **** 0.0
5710 H 40.765141 8.281106 18.465709 H 0.0 **** 0.0
5711 H 41.033508 9.054885 17.19247 H 0.0 **** 0.0
5712 M 40.476844 8.642939 17.724813 M 0.0 **** 0.0
5713 O 44.460808 20.461365 39.610524 O 0.0 **** 0.0
5714 H 44.390311 21.415094 39.56978 H 0.0 **** 0.0
5715 H 43.609938 20.144654 39.307301 H 0.0 **** 0.0
5716 M 44.342861 20.542911 39.566492 M 0.0 **** 0.0
5717 O 35.992337 16.36901 17.289602 O 0.0 **** 0.0
5718 H 35.838596 15.572141 17.797137 H 0.0 **** 0.0
5719 H 35.339867 16.989746 17.613945 H 0.0 **** 0.0
5720 M 35.889132 16.346463 17.396093 M 0.0 **** 0.0
5721 O 8.432002 38.713485 43.29774 O 0.0 **** 0.0
5722 H 9.387029 38.654164 43.272574 H 0.0 **** 0.0
5723 H 8.253183 39.640741 43.454101 H 0.0 **** 0.0
5724 M 8.531366 38.824592 43.314534 M 0.0 **** 0.0
5725 O 33.870504 35.768575 30.160541 O 0.0 **** 0.0
5726 H 33.397633 34.937994 30.108022 H 0.0 **** 0.0
5727 H 33.185601 36.436742 30.134289 H 0.0 **** 0.0
5728 M 33.722294 35.747784 30.150457 M 0.0 **** 0.0
5729 O 1.619558 14.308386 24.912658 O 0.0 **** 0.0
5730 H 0.999552 15.037342 24.891596 H 0.0 **** 0.0
5731 H 2.446685 14.688194 24.616286 H 0.0 **** 0.0
5732 M 1.646072 14.450322 24.872023 M 0.0 **** 0.0
5733 O 41.013275 36.403104 7.298519 O 0.0 **** 0.0
5734 H 40.603965 37.207938 7.616224 H 0.0 **** 0.0
5735 H 41.900021 36.665987 7.051936 H 0.0 **** 0.0
5736 M 41.074393 36.539785 7.307624 M 0.0 **** 0.0
5737 O 17.438056 13.577069 10.416816 O 0.0 **** 0.0
5738 H 18.168442 14.193924 10.369329 H 0.0 **** 0.0
5739 H 16.7868 13.929073 9.810032 H 0.0 **** 0.0
5740 M 17.448186 13.701095 10.333061 M 0.0 **** 0.0
5741 O 21.451465 16.936468 35.148671 O 0.0 **** 0.0
5742 H 20.660501 16.492063 34.843533 H 0.0 **** 0.0
5743 H 21.822823 17.333404 34.360785 H 0.0 **** 0.0
5744 M 21.39775 16.930391 35.00875 M 0.0 **** 0.0
5745 O 34.411759 9.145504 5.169673 O 0.0 **** 0.0
5746 H 34.92009 8.90291 4.395738 H 0.0 **** 0.0
5747 H 34.847713 9.927785 5.507622 H 0.0 **** 0.0
5748 M 34.532639 9.214591 5.113862 M 0.0 **** 0.0
5749 O 43.332558 3.334654 18.038845 O 0.0 **** 0.0
5750 H 43.587989 4.257097 18.029721 H 0.0 **** 0.0
5751 H 43.685858 2.979722 17.223105 H 0.0 **** 0.0
5752 M 43.410483 3.407302 17.933252 M 0.0 **** 0.0
5753 O 9.998148 2.728847 36.157994 O 0.0 **** 0.0
5754 H 10.641189 2.838945 35.457563 H 0.0 **** 0.0
5755 H 9.746365 1.806612 36.109845 H 0.0 **** 0.0
5756 M 10.048234 2.624883 36.062167 M 0.0 **** 0.0
5757 O 22.857215 47.78225 26.267684 O 0.0 **** 0.0
5758 H 23.134911 47.122057 25.632657 H 0.0 **** 0.0
5759 H 22.044713 47.43468 26.635468 H 0.0 **** 0.0
5760 M 22.788753 47.653243 26.233474 M 0.0 **** 0.0
5761 O 42.159671 30.021084 30.973472 O 0.0 **** 0.0
5762 H 41.373248 30.073009 30.430267 H 0.0 **** 0.0
5763 H 42.291366 29.083779 31.116107 H 0.0 **** 0.0
5764 M 42.075857 29.907744 30.922194 M 0.0 **** 0.0
5765 O 7.80087 14.562712 36.155334 O 0.0 **** 0.0
5766 H 7.420332 15.430044 36.01693 H 0.0 **** 0.0
5767 H 7.048778 13.994384 36.321432 H 0.0 **** 0.0
5768 M 7.655879 14.600988 36.158879 M 0.0 **** 0.0
5769 O 41.817691 22.756541 21.564961 O 0.0 **** 0.0
5770 H 41.074643 23.258192 21.229618 H 0.0 **** 0.0
5771 H 41.454196 21.893944 21.765023 H 0.0 **** 0.0
5772 M 41.676039 22.710336 21.547643 M 0.0 **** 0.0
5773 O 36.979859 39.196563 26.700129 O 0.0 **** 0.0
5774 H 36.667919 38.452052 27.214547 H 0.0 **** 0.0
5775 H 37.93214 39.100056 26.691357 H 0.0 **** 0.0
5776 M 37.061831 39.088902 26.764858 M 0.0 **** 0.0
5777 O 44.214827 26.14263 41.81412 O 0.0 **** 0.0
5778 H 44.282036 27.079935 41.631995 H 0.0 **** 0.0
5779 H 45.116739 25.863528 41.971874 H 0.0 **** 0.0
5780 M 44.338887 26.226888 41.811 M 0.0 **** 0.0
5781 O 29.328018 37.434346 10.409415 O 0.0 **** 0.0
5782 H 28.466328 37.592126 10.795193 H 0.0 **** 0.0
5783 H 29.295954 37.876962 9.561304 H 0.0 **** 0.0
5784 M 29.213606 37.511204 10.350231 M 0.0 **** 0.0
5785 O 22.40553 24.762552 2.75132 O 0.0 **** 0.0
5786 H 22.969672 24.377792 2.08055 H 0.0 **** 0.0
5787 H 21.929185 24.018596 3.119905 H 0.0 **** 0.0
5788 M 22.416769 24.618062 2.712637 M 0.0 **** 0.0
5789 O 0.892511 23.903407 1.262283 O 0.0 **** 0.0
5790 H 0.345081 24.594531 1.63497 H 0.0 **** 0.0
5791 H 1.742145 24.01386 1.689075 H 0.0 **** 0.0
5792 M 0.931197 24.006019 1.364626 M 0.0 **** 0.0
5793 O 37.043896 3.502454 21.376648 O 0.0 **** 0.0
5794 H 37.214205 4.391378 21.065138 H 0.0 **** 0.0
5795 H 37.837036 3.014475 21.155211 H 0.0 **** 0.0
5796 M 37.167229 3.55378 21.308424 M 0.0 **** 0.0
5797 O 42.811731 46.427989 7.445812 O 0.0 **** 0.0
5798 H 42.66574 47.220502 6.929248 H 0.0 **** 0.0
5799 H 43.392655 45.892757 6.905181 H 0.0 **** 0.0
5800 M 42.867408 46.460924 7.310478 M 0.0 **** 0.0
5801 O 24.407928 11.307295 47.738136 O 0.0 **** 0.0
5802 H 24.377313 12.227627 47.999442 H 0.0 **** 0.0
5803 H 23.501881 11.0071 47.810169 H 0.0 **** 0.0
5804 M 24.288024 11.386681 47.780808 M 0.0 **** 0.0
5805 O 36.211175 17.029946 1.768159 O 0.0 **** 0.0
5806 H 36.849579 16.385867 1.461841 H 0.0 **** 0.0
5807 H 36.223796 16.94569 2.721558 H 0.0 **** 0.0
5808 M 36.294515 16.93671 1.850993 M 0.0 **** 0.0
5809 O 47.077896 36.345196 18.033995 O 0.0 **** 0.0
5810 H 47.057903 35.44648 18.362838 H 0.0 **** 0.0
5811 H 48.003649 36.58767 18.05439 H 0.0 **** 0.0
5812 M 47.193845 36.261189 18.078702 M 0.0 **** 0.0
5813 O 5.920406 4.160217 19.610297 O 0.0 **** 0.0
5814 H 6.480746 3.633147 19.040695 H 0.0 **** 0.0
5815 H 5.691966 4.92468 19.081486 H 0.0 **** 0.0
5816 M 5.962893 4.190606 19.469686 M 0.0 **** 0.0
5817 O 8.655983 0.214729 30.75162 O 0.0 **** 0.0
5818 H 9.583274 -0.001856 30.848834 H 0.0 **** 0.0
5819 H 8.462304 0.781334 31.498397 H 0.0 **** 0.0
5820 M 8.749894 0.259536 30.859662 M 0.0 **** 0.0
5821 O 22.919179 2.682531 8.998168 O 0.0 **** 0.0
5822 H 22.95591 3.632711 8.888455 H 0.0 **** 0.0
5823 H 23.832737 2.400304 8.953577 H 0.0 **** 0.0
5824 M 23.040828 2.768037 8.978415 M 0.0 **** 0.0
5825 O 22.920797 35.055497 5.28688 O 0.0 **** 0.0
5826 H 22.013365 35.283191 5.084514 H 0.0 **** 0.0
5827 H 23.280758 35.843302 5.694337 H 0.0 **** 0.0
5828 M 22.850714 35.185494 5.313134 M 0.0 **** 0.0
5829 O 20.986418 5.710214 22.978433 O 0.0 **** 0.0
5830 H 21.146468 6.164297 22.151135 H 0.0 **** 0.0
5831 H 20.760634 6.406875 23.594805 H 0.0 **** 0.0
5832 M 20.978003 5.857524 22.951432 M 0.0 **** 0.0
5833 O 33.22748 12.316977 25.984341 O 0.0 **** 0.0
5834 H 32.483894 11.729593 25.849105 H 0.0 **** 0.0
5835 H 33.992911 11.742403 25.969919 H 0.0 **** 0.0
5836 M 33.230276 12.168232 25.965183 M 0.0 **** 0.0
5837 O 15.858197 8.530241 4.995176 O 0.0 **** 0.0
5838 H 15.635019 9.399383 5.32836 H 0.0 **** 0.0
5839 H 16.464245 8.698189 4.27356 H 0.0 **** 0.0
5840 M 15.907209 8.663002 4.945452 M 0.0 **** 0.0
5841 O 33.116783 36.20365 5.096755 O 0.0 **** 0.0
5842 H 32.163854 36.287982 5.06444 H 0.0 **** 0.0
5843 H 33.300267 35.892696 5.983248 H 0.0 **** 0.0
5844 M 33.018284 36.17464 5.206101 M 0.0 **** 0.0
5845 O 43.156772 20.066332 47.249828 O 0.0 **** 0.0
5846 H 42.35551 20.520585 47.510332 H 0.0 **** 0.0
5847 H 43.125631 19.234597 47.722561 H 0.0 **** 0.0
5848 M 43.050214 20.01801 47.343692 M 0.0 **** 0.0
5849 O 13.477537 36.93902 18.885242 O 0.0 **** 0.0
5850 H 12.570072 36.92525 18.581027 H 0.0 **** 0.0
5851 H 13.99859 36.817193 18.091585 H 0.0 **** 0.0
5852 M 13.428071 36.921662 18.744701 M 0.0 **** 0.0
5853 O 9.362221 28.975167 7.772088 O 0.0 **** 0.0
5854 H 10.021654 29.660967 7.877235 H 0.0 **** 0.0
5855 H 8.526672 29.442052 7.782365 H 0.0 **** 0.0
5856 M 9.339676 29.122725 7.786864 M 0.0 **** 0.0
5857 O 42.273891 42.99893 16.71443 O 0.0 **** 0.0
5858 H 41.940589 42.103866 16.777658 H 0.0 **** 0.0
5859 H 41.638181 43.526462 17.197971 H 0.0 **** 0.0
5860 M 42.149845 42.951881 16.784424 M 0.0 **** 0.0
5861 O 3.180785 25.792529 25.672577 O 0.0 **** 0.0
5862 H 3.894699 26.134941 26.210453 H 0.0 **** 0.0
5863 H 3.584757 25.099262 25.150642 H 0.0 **** 0.0
5864 M 3.323888 25.747615 25.674618 M 0.0 **** 0.0
5865 O 39.972343 5.077775 46.879169 O 0.0 **** 0.0
5866 H 39.11227 4.745065 47.1357 H 0.0 **** 0.0
5867 H 39.87478 5.308022 45.955212 H 0.0 **** 0.0
5868 M 39.849754 5.064659 46.79373 M 0.0 **** 0.0
5869 O 31.891309 33.420132 4.214496 O 0.0 **** 0.0
5870 H 31.061707 32.943928 4.179575 H 0.0 **** 0.0
5871 H 31.63984 34.34309 4.180718 H 0.0 **** 0.0
5872 M 31.752918 33.477322 4.205701 M 0.0 **** 0.0
5873 O 8.107163 15.653426 5.631067 O 0.0 **** 0.0
5874 H 7.160854 15.787342 5.578208 H 0.0 **** 0.0
5875 H 8.420561 16.370306 6.182514 H 0.0 **** 0.0
5876 M 8.026143 15.762338 5.694893 M 0.0 **** 0.0
5877 O 15.720688 22.740415 21.57987 O 0.0 **** 0.0
5878 H 15.7627 23.110611 20.698157 H 0.0 **** 0.0
5879 H 15.64412 21.796525 21.440456 H 0.0 **** 0.0
5880 M 15.716264 22.666975 21.449153 M 0.0 **** 0.0
5881 O 39.781639 18.873173 27.453112 O 0.0 **** 0.0
5882 H 39.306887 18.118602 27.801625 H 0.0 **** 0.0
5883 H 40.58812 18.907788 27.967525 H 0.0 **** 0.0
5884 M 39.824105 18.78101 27.563577 M 0.0 **** 0.0
5885 O 38.45356 19.714798 19.357816 O 0.0 **** 0.0
5886 H 39.396176 19.548369 19.355735 H 0.0 **** 0.0
5887 H 38.071242 18.924933 19.740145 H 0.0 **** 0.0
5888 M 38.525285 19.592381 19.406492 M 0.0 **** 0.0
5889 O 19.2892 3.316113 26.562558 O 0.0 **** 0.0
5890 H 20.243435 3.381613 26.599628 H 0.0 **** 0.0
5891 H 18.982486 4.216434 26.670154 H 0.0 **** 0.0
5892 M 19.372091 3.43975 26.581077 M 0.0 **** 0.0
5893 O 45.379325 33.83403 41.500902 O 0.0 **** 0.0
5894 H 46.140513 34.127612 41.000271 H 0.0 **** 0.0
5895 H 45.683495 33.053946 41.964776 H 0.0 **** 0.0
5896 M 45.515704 33.771752 41.496197 M 0.0 **** 0.0
5897 O 36.049885 6.048721 31.062408 O 0.0 **** 0.0
5898 H 35.207933 5.718163 30.749237 H 0.0 **** 0.0
5899 H 36.696218 5.64837 30.480858 H 0.0 **** 0.0
5900 M 36.024843 5.955156 30.947873 M 0.0 **** 0.0
5901 O 35.238578 8.997975 29.682593 O 0.0 **** 0.0
5902 H 36.186744 9.002785 29.551497 H 0.0 **** 0.0
5903 H 35.001076 9.922709 29.751055 H 0.0 **** 0.0
5904 M 35.329552 9.116968 29.674575 M 0.0 **** 0.0
5905 O 31.646333 0.014666 46.108303 O 0.0 **** 0.0
5906 H 30.702779 0.073753 46.258114 H 0.0 **** 0.0
5907 H 31.738178 0.009235 45.155536 H 0.0 **** 0.0
5908 M 31.537303 0.021534 46.005514 M 0.0 **** 0.0
5909 O 34.140649 24.317008 10.00705 O 0.0 **** 0.0
5910 H 35.062713 24.36647 9.754899 H 0.0 **** 0.0
5911 H 34.128823 23.724296 10.758569 H 0.0 **** 0.0
5912 M 34.257171 24.247465 10.070975 M 0.0 **** 0.0
5913 O 37.914383 23.191572 21.770813 O 0.0 **** 0.0
5914 H 37.219005 22.95186 22.383362 H 0.0 **** 0.0
5915 H 37.51131 23.110343 20.906428 H 0.0 **** 0.0
5916 M 37.773768 23.150488 21.738575 M 0.0 **** 0.0
5917 O 10.89038 24.289428 22.311747 O 0.0 **** 0.0
5918 H 11.430039 23.498901 22.303734 H 0.0 **** 0.0
5919 H 11.073993 24.696781 23.158257 H 0.0 **** 0.0
5920 M 10.982968 24.240377 22.419086 M 0.0 **** 0.0
5921 O 7.929254 26.232428 44.561512 O 0.0 **** 0.0
5922 H 8.577995 26.014715 45.230814 H 0.0 **** 0.0
5923 H 7.5122 25.397028 44.350793 H 0.0 **** 0.0
5924 M 7.958913 26.097616 44.620216 M 0.0 **** 0.0
5925 O 8.6831 40.240004 39.93277 O 0.0 **** 0.0
5926 H 8.06953 39.857134 39.305736 H 0.0 **** 0.0
5927 H 9.045112 39.48918 40.403344 H 0.0 **** 0.0
5928 M 8.650898 40.094877 39.912741 M 0.0 **** 0.0
5929 O 16.224478 38.41636 9.206158 O 0.0 **** 0.0
5930 H 15.444582 38.965763 9.127748 H 0.0 **** 0.0
5931 H 16.951099 39.037224 9.258877 H 0.0 **** 0.0
5932 M 16.217658 38.566169 9.202869 M 0.0 **** 0.0
5933 O 23.694943 45.847809 44.863968 O 0.0 **** 0.0
5934 H 23.50902 45.709332 45.792669 H 0.0 **** 0.0
5935 H 22.956009 46.366582 44.546035 H 0.0 **** 0.0
5936 M 23.576549 45.896491 44.942154 M 0.0 **** 0.0
5937 O 5.890798 14.230632 45.587087 O 0.0 **** 0.0
5938 H 6.17781 14.029816 46.477888 H 0.0 **** 0.0
5939 H 6.637044 13.995355 45.035733 H 0.0 **** 0.0
5940 M 6.023068 14.174806 45.630541 M 0.0 **** 0.0
5941 O 9.632301 11.950368 2.668913 O 0.0 **** 0.0
5942 H 9.074569 12.464004 2.084668 H 0.0 **** 0.0
5943 H 10.007342 11.271819 2.107536 H 0.0 **** 0.0
5944 M 9.608914 11.929257 2.522259 M 0.0 **** 0.0
5945 O 21.027299 0.73811 26.694658 O 0.0 **** 0.0
5946 H 20.262756 1.066009 26.221178 H 0.0 **** 0.0
5947 H 21.335082 -0.001445 26.170677 H 0.0 **** 0.0
5948 M 20.968828 0.685413 26.566971 M 0.0 **** 0.0
5949 O 28.15354 25.475153 7.16285 O 0.0 **** 0.0
5950 H 28.894955 24.891437 7.0022 H 0.0 **** 0.0
5951 H 28.543021 26.347654 7.220071 H 0.0 **** 0.0
5952 M 28.298309 25.512121 7.149609 M 0.0 **** 0.0
5953 O 44.504166 17.770576 17.690178 O 0.0 **** 0.0
5954 H 45.33252 18.217275 17.515486 H 0.0 **** 0.0
5955 H 44.400721 17.819789 18.640497 H 0.0 **** 0.0
5956 M 44.596963 17.834059 17.789468 M 0.0 **** 0.0
5957 O 8.62547 18.698555 12.93568 O 0.0 **** 0.0
5958 H 8.647432 19.574035 13.322049 H 0.0 **** 0.0
5959 H 9.494863 18.583668 12.552031 H 0.0 **** 0.0
5960 M 8.739575 18.79592 12.936028 M 0.0 **** 0.0
5961 O 37.561619 45.206502 46.515613 O 0.0 **** 0.0
5962 H 37.872794 46.003049 46.945625 H 0.0 **** 0.0
5963 H 36.701038 45.441589 46.168679 H 0.0 **** 0.0
5964 M 37.491288 45.338564 46.526248 M 0.0 **** 0.0
5965 O 11.662201 12.694542 35.502277 O 0.0 **** 0.0
5966 H 11.056414 12.130099 35.982543 H 0.0 **** 0.0
5967 H 11.268101 13.565512 35.550489 H 0.0 **** 0.0
5968 M 11.534203 12.733781 35.569929 M 0.0 **** 0.0
5969 O 18.163038 18.875537 24.022951 O 0.0 **** 0.0
5970 H 18.625035 18.137384 24.420339 H 0.0 **** 0.0
5971 H 17.283128 18.541819 23.847967 H 0.0 **** 0.0
5972 M 18.10954 18.738324 24.051422 M 0.0 **** 0.0
5973 O 30.746272 28.090432 8.492632 O 0.0 **** 0.0
5974 H 31.170686 28.088849 7.63467 H 0.0 **** 0.0
5975 H 30.011269 27.484604 8.397909 H 0.0 **** 0.0
5976 M 30.706513 28.012676 8.370676 M 0.0 **** 0.0
5977 O 23.290146 20.391467 26.587664 O 0.0 **** 0.0
5978 H 23.832828 19.95696 27.245638 H 0.0 **** 0.0
5979 H 23.864235 20.486229 25.827618 H 0.0 **** 0.0
5980 M 23.433107 20.347976 26.574598 M 0.0 **** 0.0
5981 O 14.130321 2.916085 27.368356 O 0.0 **** 0.0
5982 H 13.942921 2.398562 26.585235 H 0.0 **** 0.0
5983 H 14.698325 2.355119 27.896482 H 0.0 **** 0.0
5984 M 14.179043 2.778025 27.335714 M 0.0 **** 0.0
5985 O 16.819013 23.922258 17.968271 O 0.0 **** 0.0
5986 H 17.015063 24.657494 18.548978 H 0.0 **** 0.0
5987 H 17.670637 23.522949 17.790741 H 0.0 **** 0.0
5988 M 16.953128 23.965261 18.019883 M 0.0 **** 0.0
5989 O 19.88429 46.951467 38.062169 O 0.0 **** 0.0
5990 H 20.656783 46.633741 37.594694 H 0.0 **** 0.0
5991 H 19.499478 47.602388 37.47527 H 0.0 **** 0.0
5992 M 19.933918 46.99412 37.927196 M 0.0 **** 0.0
5993 O 46.175994 41.65964 6.264276 O 0.0 **** 0.0
5994 H 45.63788 42.180547 6.860361 H 0.0 **** 0.0
5995 H 46.814978 42.280066 5.913562 H 0.0 **** 0.0
5996 M 46.188907 41.805745 6.295687 M 0.0 **** 0.0
5997 O 38.228292 10.131697 44.911944 O 0.0 **** 0.0
5998 H 38.474233 9.344543 45.397877 H 0.0 **** 0.0
5999 H 37.679524 10.627302 45.519775 H 0.0 **** 0.0
6000 M 38.189526 10.094375 45.05196 M 0.0 **** 0.0
6001 O 35.980059 23.080235 17.615624 O 0.0 **** 0.0
6002 H 35.083442 23.317202 17.852591 H 0.0 **** 0.0
6003 H 35.946619 22.135673 17.46425 H 0.0 **** 0.0
6004 M 35.861 22.989654 17.626581 M 0.0 **** 0.0
6005 O 41.926742 6.868081 15.584012 O 0.0 **** 0.0
6006 H 42.270041 6.700971 14.70626 H 0.0 **** 0.0
6007 H 42.443214 7.606362 15.907164 H 0.0 **** 0.0
6008 M 42.036804 6.941198 15.513016 M 0.0 **** 0.0
6009 O 14.432504 26.236323 47.410557 O 0.0 **** 0.0
6010 H 13.710149 26.503944 46.842393 H 0.0 **** 0.0
6011 H 15.151494 26.042078 46.809266 H 0.0 **** 0.0
6012 M 14.432073 26.245716 47.260852 M 0.0 **** 0.0
6013 O 29.468789 27.435443 10.528893 O 0.0 **** 0.0
6014 H 29.38638 27.984189 11.308839 H 0.0 **** 0.0
6015 H 28.84973 26.719653 10.672561 H 0.0 **** 0.0
6016 M 29.378993 27.414059 10.647127 M 0.0 **** 0.0
6017 O 7.108809 12.860177 7.205709 O 0.0 **** 0.0
6018 H 7.96411 13.078846 7.575672 H 0.0 **** 0.0
6019 H 6.674527 13.705211 7.089321 H 0.0 **** 0.0
6020 M 7.162704 12.996344 7.23817 M 0.0 **** 0.0
6021 O 4.016545 0.691774 37.541322 O 0.0 **** 0.0
6022 H 4.607634 -0.023525 37.306395 H 0.0 **** 0.0
6023 H 4.507634 1.486816 37.334034 H 0.0 **** 0.0
6024 M 4.155078 0.701982 37.484713 M 0.0 **** 0.0
6025 O 14.178045 4.517715 20.730304 O 0.0 **** 0.0
6026 H 14.244793 5.463717 20.860123 H 0.0 **** 0.0
6027 H 15.074404 4.236914 20.546129 H 0.0 **** 0.0
6028 M 14.301335 4.602869 20.723346 M 0.0 **** 0.0
6029 O 23.120221 45.436105 20.732466 O 0.0 **** 0.0
6030 H 22.467936 44.737133 20.779264 H 0.0 **** 0.0
6031 H 22.887352 45.929409 19.945922 H 0.0 **** 0.0
6032 M 23.00691 45.409777 20.637769 M 0.0 **** 0.0
6033 O 3.320161 36.642636 3.239355 O 0.0 **** 0.0
6034 H 2.706965 35.92609 3.0757 H 0.0 **** 0.0
6035 H 3.623989 36.498538 4.135543 H 0.0 **** 0.0
6036 M 3.280558 36.532463 3.333128 M 0.0 **** 0.0
6037 O 38.439941 9.910955 39.913459 O 0.0 **** 0.0
6038 H 37.677494 9.623666 39.411097 H 0.0 **** 0.0
6039 H 38.213561 10.79237 40.210255 H 0.0 **** 0.0
6040 M 38.313358 9.987011 39.887144 M 0.0 **** 0.0
6041 O 26.330071 16.159831 47.998026 O 0.0 **** 0.0
6042 H 25.870404 16.954748 47.727762 H 0.0 **** 0.0
6043 H 25.709263 15.45249 47.823402 H 0.0 **** 0.0
6044 M 26.191757 16.171042 47.941075 M 0.0 **** 0.0
6045 O 38.572816 25.458131 38.906447 O 0.0 **** 0.0
6046 H 38.668164 24.625827 39.369488 H 0.0 **** 0.0
6047 H 37.890284 25.924446 39.389074 H 0.0 **** 0.0
6048 M 38.497649 25.41128 39.027504 M 0.0 **** 0.0
6049 O 27.061587 22.65567 15.888727 O 0.0 **** 0.0
6050 H 27.788678 23.110889 15.464058 H 0.0 **** 0.0
6051 H 27.067559 22.981211 16.788847 H 0.0 **** 0.0
6052 M 27.155428 22.755617 15.94959 M 0.0 **** 0.0
6053 O 7.140965 42.34108 43.775954 O 0.0 **** 0.0
6054 H 7.939554 41.833036 43.633213 H 0.0 **** 0.0
6055 H 6.433356 41.700073 43.707918 H 0.0 **** 0.0
6056 M 7.152611 42.193987 43.748972 M 0.0 **** 0.0
6057 O 16.586154 7.921464 8.512997 O 0.0 **** 0.0
6058 H 17.074559 8.38849 7.835076 H 0.0 **** 0.0
6059 H 15.825619 8.47629 8.686155 H 0.0 **** 0.0
6060 M 16.551318 8.052274 8.448381 M 0.0 **** 0.0
6061 O 27.458548 19.852286 39.785992 O 0.0 **** 0.0
6062 H 28.259165 19.692514 40.285706 H 0.0 **** 0.0
6063 H 27.101236 18.979959 39.619855 H 0.0 **** 0.0
6064 M 27.515297 19.720165 39.828694 M 0.0 **** 0.0
6065 O 39.256376 29.832226 2.069638 O 0.0 **** 0.0
6066 H 38.32684 30.056303 2.025132 H 0.0 **** 0.0
6067 H 39.276532 28.877528 2.003504 H 0.0 **** 0.0
6068 M 39.139964 29.738697 2.055474 M 0.0 **** 0.0
6069 O 10.048181 44.048311 39.527431 O 0.0 **** 0.0
6070 H 10.643522 44.610495 39.031702 H 0.0 **** 0.0
6071 H 10.044801 43.220108 39.047539 H 0.0 **** 0.0
6072 M 10.123959 44.014258 39.40254 M 0.0 **** 0.0
6073 O 0.816277 31.233123 16.687522 O 0.0 **** 0.0
6074 H 0.312271 31.328619 15.879384 H 0.0 **** 0.0
6075 H 1.46257 30.555639 16.488652 H 0.0 **** 0.0
6076 M 0.834492 31.158621 16.558613 M 0.0 **** 0.0
6077 O 10.924301 13.861489 44.01104 O 0.0 **** 0.0
6078 H 11.526034 13.778349 44.750792 H 0.0 **** 0.0
6079 H 10.354001 14.593252 44.246643 H 0.0 **** 0.0
6080 M 10.928325 13.944521 44.135897 M 0.0 **** 0.0
6081 O 30.524831 1.285222 39.329476 O 0.0 **** 0.0
6082 H 29.743165 0.940077 39.760872 H 0.0 **** 0.0
6083 H 30.379506 2.230497 39.289939 H 0.0 **** 0.0
6084 M 30.406165 1.362046 39.379639 M 0.0 **** 0.0
6085 O 44.687975 43.902201 33.924091 O 0.0 **** 0.0
6086 H 44.49284 43.401167 34.715997 H 0.0 **** 0.0
6087 H 45.229276 43.315325 33.396078 H 0.0 **** 0.0
6088 M 44.732289 43.762935 33.957873 M 0.0 **** 0.0
6089 O 34.923464 31.52958 31.538521 O 0.0 **** 0.0
6090 H 34.176343 31.489764 32.135558 H 0.0 **** 0.0
6091 H 35.46229 32.245237 31.87576 H 0.0 **** 0.0
6092 M 34.8968 31.616096 31.65812 M 0.0 **** 0.0
6093 O 4.837217 16.565648 41.156151 O 0.0 **** 0.0
6094 H 4.511944 15.877584 40.575639 H 0.0 **** 0.0
6095 H 4.277929 17.320076 40.971045 H 0.0 **** 0.0
6096 M 4.723982 16.574144 41.058142 M 0.0 **** 0.0
6097 O 31.823159 23.812473 3.124289 O 0.0 **** 0.0
6098 H 31.872006 22.864496 3.001078 H 0.0 **** 0.0
6099 H 32.653943 24.14213 2.78172 H 0.0 **** 0.0
6100 M 31.935762 23.73332 3.064663 M 0.0 **** 0.0
6101 O 31.867715 15.855218 26.075788 O 0.0 **** 0.0
6102 H 31.743233 15.28526 26.834657 H 0.0 **** 0.0
6103 H 32.634763 16.383814 26.29591 H 0.0 **** 0.0
6104 M 31.949972 15.849923 26.201111 M 0.0 **** 0.0
6105 O 41.963104 0.588914 42.894925 O 0.0 **** 0.0
6106 H 41.028528 0.433792 43.031795 H 0.0 **** 0.0
6107 H 42.139601 0.236719 42.022551 H 0.0 **** 0.0
6108 M 41.866061 0.523971 42.800771 M 0.0 **** 0.0
6109 O 16.615191 34.646113 36.127348 O 0.0 **** 0.0
6110 H 17.004733 35.517012 36.049752 H 0.0 **** 0.0
6111 H 15.747433 34.803627 36.499389 H 0.0 **** 0.0
6112 M 16.553973 34.777763 36.165041 M 0.0 **** 0.0
6113 O 34.040187 36.212248 14.69436 O 0.0 **** 0.0
6114 H 34.708381 36.826174 14.999056 H 0.0 **** 0.0
6115 H 34.505402 35.381815 14.593448 H 0.0 **** 0.0
6116 M 34.185278 36.184533 14.720447 M 0.0 **** 0.0
6117 O 34.981037 30.653465 6.085911 O 0.0 **** 0.0
6118 H 35.715633 30.832127 5.498819 H 0.0 **** 0.0
6119 H 34.708933 29.76259 5.865615 H 0.0 **** 0.0
6120 M 35.040242 30.562293 5.982555 M 0.0 **** 0.0
6121 O 26.675931 24.277352 13.937278 O 0.0 **** 0.0
6122 H 26.309685 25.09433 14.275861 H 0.0 **** 0.0
6123 H 26.177086 24.103339 13.139091 H 0.0 **** 0.0
6124 M 26.565189 24.35966 13.878443 M 0.0 **** 0.0
6125 O 5.236029 27.272714 8.793018 O 0.0 **** 0.0
6126 H 5.510785 27.901558 8.125714 H 0.0 **** 0.0
6127 H 5.956424 27.261379 9.423201 H 0.0 **** 0.0
6128 M 5.363421 27.351763 8.788266 M 0.0 **** 0.0
6129 O 9.397918 12.285621 37.417254 O 0.0 **** 0.0
6130 H 9.267986 13.214734 37.227264 H 0.0 **** 0.0
6131 H 10.026142 12.273889 38.139352 H 0.0 **** 0.0
6132 M 9.461705 12.403058 37.485371 M 0.0 **** 0.0
6133 O 34.823921 38.11434 6.649397 O 0.0 **** 0.0
6134 H 35.631937 37.876177 7.103949 H 0.0 **** 0.0
6135 H 34.829169 39.071433 6.636167 H 0.0 **** 0.0
6136 M 34.928029 38.206372 6.705892 M 0.0 **** 0.0
6137 O 6.035308 36.473246 0.665941 O 0.0 **** 0.0
6138 H 5.891151 35.799392 0.001587 H 0.0 **** 0.0
6139 H 6.481483 37.179461 0.198589 H 0.0 **** 0.0
6140 M 6.07397 36.477389 0.521068 M 0.0 **** 0.0
6141 O 39.694466 7.149371 10.114673 O 0.0 **** 0.0
6142 H 39.56632 7.969322 10.591631 H 0.0 **** 0.0
6143 H 39.15654 6.511954 10.584316 H 0.0 **** 0.0
6144 M 39.6092 7.172738 10.23585 M 0.0 **** 0.0
6145 O 17.775416 6.18781 46.105016 O 0.0 **** 0.0
6146 H 18.082184 5.324881 45.826674 H 0.0 **** 0.0
6147 H 17.001472 6.00684 46.638392 H 0.0 **** 0.0
6148 M 17.715612 6.054178 46.137664 M 0.0 **** 0.0
6149 O 39.581986 29.215169 13.838147 O 0.0 **** 0.0
6150 H 38.964053 29.942362 13.763466 H 0.0 **** 0.0
6151 H 39.039288 28.462114 14.071848 H 0.0 **** 0.0
6152 M 39.433411 29.211858 13.858504 M 0.0 **** 0.0
6153 O 5.237302 17.925391 5.197842 O 0.0 **** 0.0
6154 H 4.742566 18.067016 6.00494 H 0.0 **** 0.0
6155 H 6.153866 18.011816 5.459891 H 0.0 **** 0.0
6156 M 5.291301 17.954584 5.334706 M 0.0 **** 0.0
6157 O 21.092974 12.807652 9.471751 O 0.0 **** 0.0
6158 H 21.615816 13.315731 10.09201 H 0.0 **** 0.0
6159 H 20.567775 13.46067 9.009191 H 0.0 **** 0.0
6160 M 21.092673 12.956287 9.491938 M 0.0 **** 0.0
6161 O 36.219255 0.419401 30.420646 O 0.0 **** 0.0
6162 H 37.04335 0.882296 30.571725 H 0.0 **** 0.0
6163 H 36.02184 0.001087 31.258661 H 0.0 **** 0.0
6164 M 36.299478 0.425108 30.547262 M 0.0 **** 0.0
6165 O 10.70879 24.293777 2.160264 O 0.0 **** 0.0
6166 H 10.277119 25.146656 2.210121 H 0.0 **** 0.0
6167 H 11.114833 24.179714 3.019535 H 0.0 **** 0.0
6168 M 10.705509 24.388355 2.276644 M 0.0 **** 0.0
6169 O 10.841485 20.752998 44.025987 O 0.0 **** 0.0
6170 H 11.214489 21.609216 43.816254 H 0.0 **** 0.0
6171 H 9.922352 20.821864 43.767763 H 0.0 **** 0.0
6172 M 10.771574 20.871421 43.966082 M 0.0 **** 0.0
6173 O 15.763536 11.072179 21.842184 O 0.0 **** 0.0
6174 H 15.94217 10.451624 21.135621 H 0.0 **** 0.0
6175 H 14.874137 10.862131 22.126925 H 0.0 **** 0.0
6176 M 15.67255 10.965851 21.788185 M 0.0 **** 0.0
6177 O 3.413167 36.66209 47.984894 O 0.0 **** 0.0
6178 H 2.996347 37.523572 48.003314 H 0.0 **** 0.0
6179 H 4.287894 36.826198 47.632545 H 0.0 **** 0.0
6180 M 3.471785 36.793379 47.942147 M 0.0 **** 0.0
6181 O 9.985124 14.53916 6.677627 O 0.0 **** 0.0
6182 H 10.242645 15.154493 5.991131 H 0.0 **** 0.0
6183 H 9.511849 13.847683 6.214918 H 0.0 **** 0.0
6184 M 9.957505 14.529413 6.530515 M 0.0 **** 0.0
6185 O 39.639116 31.239209 16.252709 O 0.0 **** 0.0
6186 H 38.937472 30.592311 16.326513 H 0.0 **** 0.0
6187 H 40.292621 30.821507 15.691742 H 0.0 **** 0.0
6188 M 39.632953 31.102927 16.190346 M 0.0 **** 0.0
6189 O 39.567195 47.149621 19.906112 O 0.0 **** 0.0
6190 H 39.092326 47.907466 19.564938 H 0.0 **** 0.0
6191 H 40.451485 47.475776 20.073096 H 0.0 **** 0.0
6192 M 39.619606 47.288387 19.883813 M 0.0 **** 0.0
6193 O 47.121982 38.076933 16.561429 O 0.0 **** 0.0
6194 H 47.115616 38.495031 17.422465 H 0.0 **** 0.0
6195 H 46.707525 38.7157 15.981402 H 0.0 **** 0.0
6196 M 47.068111 38.212225 16.597402 M 0.0 **** 0.0
6197 O 39.073947 4.010584 13.924451 O 0.0 **** 0.0
6198 H 39.538682 3.234601 13.611241 H 0.0 **** 0.0
6199 H 38.218646 3.682393 14.2019 H 0.0 **** 0.0
6200 M 39.02395 3.869236 13.919873 M 0.0 **** 0.0
6201 O 29.659035 31.861883 34.814221 O 0.0 **** 0.0
6202 H 29.473713 32.212903 33.943205 H 0.0 **** 0.0
6203 H 28.816604 31.888461 35.267908 H 0.0 **** 0.0
6204 M 29.52747 31.91022 34.760798 M 0.0 **** 0.0
6205 O 21.356229 32.622572 5.080081 O 0.0 **** 0.0
6206 H 21.074049 32.859214 5.963598 H 0.0 **** 0.0
6207 H 22.238234 32.986642 5.004261 H 0.0 **** 0.0
6208 M 21.433014 32.699471 5.183476 M 0.0 **** 0.0
6209 O 17.995974 42.356177 19.366119 O 0.0 **** 0.0
6210 H 18.210135 42.503967 20.287271 H 0.0 **** 0.0
6211 H 17.391345 41.614187 19.376355 H 0.0 **** 0.0
6212 M 17.94599 42.280112 19.485348 M 0.0 **** 0.0
6213 O 33.791705 39.633443 13.154054 O 0.0 **** 0.0
6214 H 34.28722 40.440538 13.29295 H 0.0 **** 0.0
6215 H 32.875467 39.896295 13.241499 H 0.0 **** 0.0
6216 M 33.737847 39.77041 13.183029 M 0.0 **** 0.0
6217 O 45.507112 37.887872 44.801355 O 0.0 **** 0.0
6218 H 45.047191 37.232305 45.325696 H 0.0 **** 0.0
6219 H 45.197209 38.727395 45.141047 H 0.0 **** 0.0
6220 M 45.408565 37.911421 44.911962 M 0.0 **** 0.0
6221 O 38.959209 21.344545 30.857261 O 0.0 **** 0.0
6222 H 38.043969 21.515299 31.079537 H 0.0 **** 0.0
6223 H 39.40903 21.311262 31.701526 H 0.0 **** 0.0
6224 M 38.89963 21.362143 30.993792 M 0.0 **** 0.0
6225 O 16.749603 29.7014 34.380987 O 0.0 **** 0.0
6226 H 16.932874 29.489715 35.296317 H 0.0 **** 0.0
6227 H 15.988818 30.28121 34.416438 H 0.0 **** 0.0
6228 M 16.675674 29.748525 34.502699 M 0.0 **** 0.0
6229 O 21.379748 26.951911 38.493467 O 0.0 **** 0.0
6230 H 22.29571 26.979598 38.77001 H 0.0 **** 0.0
6231 H 21.418962 26.822734 37.545837 H 0.0 **** 0.0
6232 M 21.502022 26.938919 38.40756 M 0.0 **** 0.0
6233 O 20.101252 3.13068 12.901971 O 0.0 **** 0.0
6234 H 19.380618 2.507024 12.812697 H 0.0 **** 0.0
6235 H 20.695281 2.915555 12.182889 H 0.0 **** 0.0
6236 M 20.085045 3.023305 12.798491 M 0.0 **** 0.0
6237 O 34.869847 28.516277 3.192365 O 0.0 **** 0.0
6238 H 34.77639 29.312771 3.714946 H 0.0 **** 0.0
6239 H 33.973009 28.273942 2.961749 H 0.0 **** 0.0
6240 M 34.743077 28.587216 3.22974 M 0.0 **** 0.0
6241 O 44.637612 34.501532 3.08542 O 0.0 **** 0.0
6242 H 44.694295 34.385886 4.033915 H 0.0 **** 0.0
6243 H 43.739293 34.794639 2.93265 H 0.0 **** 0.0
6244 M 44.529872 34.524249 3.187283 M 0.0 **** 0.0
6245 O 36.714921 18.957718 21.470762 O 0.0 **** 0.0
6246 H 35.930728 18.952462 20.921906 H 0.0 **** 0.0
6247 H 36.960462 19.881012 21.529636 H 0.0 **** 0.0
6248 M 36.645967 19.075238 21.408038 M 0.0 **** 0.0
6249 O 33.974888 35.098748 22.789553 O 0.0 **** 0.0
6250 H 33.02138 35.147688 22.721317 H 0.0 **** 0.0
6251 H 34.2577 36.010635 22.858168 H 0.0 **** 0.0
6252 M 33.88903 35.221746 22.789602 M 0.0 **** 0.0
6253 O 34.925585 7.301991 28.045863 O 0.0 **** 0.0
6254 H 34.239158 6.74042 27.685743 H 0.0 **** 0.0
6255 H 35.089824 6.94943 28.92048 H 0.0 **** 0.0
6256 M 34.858738 7.184971 28.111725 M 0.0 **** 0.0
6257 O 24.14518 16.026178 25.64372 O 0.0 **** 0.0
6258 H 24.749075 15.812693 24.932409 H 0.0 **** 0.0
6259 H 23.78464 16.879954 25.404333 H 0.0 **** 0.0
6260 M 24.176332 16.108143 25.522019 M 0.0 **** 0.0
6261 O 15.226984 19.321015 8.327643 O 0.0 **** 0.0
6262 H 15.135939 19.538765 7.399998 H 0.0 **** 0.0
6263 H 14.868201 20.079375 8.788505 H 0.0 **** 0.0
6264 M 15.1694 19.445969 8.267889 M 0.0 **** 0.0
6265 O 18.543862 3.879151 18.55339 O 0.0 **** 0.0
6266 H 17.79225 4.33347 18.934049 H 0.0 **** 0.0
6267 H 18.237456 2.983027 18.414446 H 0.0 **** 0.0
6268 M 18.408423 3.822595 18.584333 M 0.0 **** 0.0
6269 O 4.531923 40.712707 1.562777 O 0.0 **** 0.0
6270 H 4.135315 41.504498 1.92609 H 0.0 **** 0.0
6271 H 3.83329 40.308869 1.047942 H 0.0 **** 0.0
6272 M 4.391719 40.76237 1.54338 M 0.0 **** 0.0
6273 O 13.400486 6.144342 1.97642 O 0.0 **** 0.0
6274 H 14.000645 6.887897 2.032681 H 0.0 **** 0.0
6275 H 12.670192 6.38161 2.547912 H 0.0 **** 0.0
6276 M 13.383827 6.2699 2.05678 M 0.0 **** 0.0
6277 O 6.882354 33.239855 24.300198 O 0.0 **** 0.0
6278 H 6.313707 32.477918 24.411199 H 0.0 **** 0.0
6279 H 6.307339 33.919165 23.947885 H 0.0 **** 0.0
6280 M 6.735951 33.229278 24.269307 M 0.0 **** 0.0
6281 O 43.169424 28.925753 3.958607 O 0.0 **** 0.0
6282 H 43.69354 29.712611 3.808993 H 0.0 **** 0.0
6283 H 43.809781 28.215664 4.002721 H 0.0 **** 0.0
6284 M 43.318491 28.93558 3.945101 M 0.0 **** 0.0
6285 O 23.41445 24.207734 30.271566 O 0.0 **** 0.0
6286 H 23.863937 23.550557 29.740239 H 0.0 **** 0.0
6287 H 22.569956 23.809377 30.482208 H 0.0 **** 0.0
6288 M 23.363884 24.072612 30.230514 M 0.0 **** 0.0
6289 O 26.926801 29.406909 25.432328 O 0.0 **** 0.0
6290 H 27.159926 30.054531 24.767147 H 0.0 **** 0.0
6291 H 26.602326 29.92531 26.168674 H 0.0 **** 0.0
6292 M 26.915107 29.556174 25.441438 M 0.0 **** 0.0
6293 O 14.558829 24.107824 26.631389 O 0.0 **** 0.0
6294 H 13.792294 24.659416 26.475184 H 0.0 **** 0.0
6295 H 14.593601 24.009126 27.58285 H 0.0 **** 0.0
6296 M 14.465154 24.1658 26.733192 M 0.0 **** 0.0
6297 O 16.055649 32.583944 20.485658 O 0.0 **** 0.0
6298 H 16.025699 31.746946 20.949086 H 0.0 **** 0.0
6299 H 16.616803 32.418812 19.727986 H 0.0 **** 0.0
6300 M 16.12365 32.455659 20.447991 M 0.0 **** 0.0
6301 O 23.065917 44.076422 16.619059 O 0.0 **** 0.0
6302 H 23.432609 44.214454 17.492393 H 0.0 **** 0.0
6303 H 22.471426 44.815244 16.488864 H 0.0 **** 0.0
6304 M 23.036756 44.18867 16.71419 M 0.0 **** 0.0
6305 O 7.43338 2.659302 14.144945 O 0.0 **** 0.0
6306 H 6.666235 3.031725 13.710182 H 0.0 **** 0.0
6307 H 8.023567 3.402667 14.268703 H 0.0 **** 0.0
6308 M 7.410727 2.802137 14.105132 M 0.0 **** 0.0
6309 O 20.582521 22.587821 7.275656 O 0.0 **** 0.0
6310 H 20.990069 23.145819 6.613258 H 0.0 **** 0.0
6311 H 20.074656 21.950702 6.773281 H 0.0 **** 0.0
6312 M 20.569679 22.577693 7.126551 M 0.0 **** 0.0
6313 O 18.922168 7.803217 35.315227 O 0.0 **** 0.0
6314 H 19.747457 7.8764 35.794571 H 0.0 **** 0.0
6315 H 18.535695 8.67734 35.367931 H 0.0 **** 0.0
6316 M 18.978342 7.924484 35.383336 M 0.0 **** 0.0
6317 O 2.72824 12.688247 34.068374 O 0.0 **** 0.0
6318 H 3.201857 12.878673 34.878099 H 0.0 **** 0.0
6319 H 2.953395 11.780058 33.866563 H 0.0 **** 0.0
6320 M 2.817692 12.596364 34.146195 M 0.0 **** 0.0
6321 O 33.044608 25.104105 24.276088 O 0.0 **** 0.0
6322 H 33.017384 24.186628 24.547611 H 0.0 **** 0.0
6323 H 32.570461 25.571984 24.963476 H 0.0 **** 0.0
6324 M 32.980426 25.046551 24.39884 M 0.0 **** 0.0
6325 O 18.126331 47.420232 17.359506 O 0.0 **** 0.0
6326 H 17.373494 48.000173 17.474105 H 0.0 **** 0.0
6327 H 18.835241 47.99958 17.080167 H 0.0 **** 0.0
6328 M 18.120708 47.568635 17.338418 M 0.0 **** 0.0
6329 O 28.140925 40.884974 33.750373 O 0.0 **** 0.0
6330 H 28.83615 40.2295 33.807343 H 0.0 **** 0.0
6331 H 28.603356 41.721571 33.70046 H 0.0 **** 0.0
6332 M 28.28912 40.90816 33.751277 M 0.0 **** 0.0
6333 O 34.866558 22.674035 36.415108 O 0.0 **** 0.0
6334 H 34.821413 23.356916 35.745882 H 0.0 **** 0.0
6335 H 35.139057 23.133847 37.209178 H 0.0 **** 0.0
6336 M 34.895662 22.820314 36.43109 M 0.0 **** 0.0
6337 O 11.646271 17.228189 21.047513 O 0.0 **** 0.0
6338 H 11.255634 17.709855 20.318384 H 0.0 **** 0.0
6339 H 11.127772 17.485021 21.810025 H 0.0 **** 0.0
6340 M 11.52989 17.322726 21.051786 M 0.0 **** 0.0
6341 O 17.780908 15.904235 27.452938 O 0.0 **** 0.0
6342 H 18.124861 16.780377 27.627008 H 0.0 **** 0.0
6343 H 17.261602 15.691832 28.22846 H 0.0 **** 0.0
6344 M 17.758461 15.989202 27.574498 M 0.0 **** 0.0
6345 O -0.000688 44.586835 37.741689 O 0.0 **** 0.0
6346 H 0.011207 43.639134 37.607709 H 0.0 **** 0.0
6347 H 0.884456 44.798404 38.038316 H 0.0 **** 0.0
6348 M 0.114144 44.492601 37.76251 M 0.0 **** 0.0
6349 O 1.615643 38.584783 12.447226 O 0.0 **** 0.0
6350 H 2.275707 39.267474 12.567542 H 0.0 **** 0.0
6351 H 1.061571 38.646879 13.225286 H 0.0 **** 0.0
6352 M 1.629211 38.680125 12.562229 M 0.0 **** 0.0
6353 O 9.255408 28.482329 18.764014 O 0.0 **** 0.0
6354 H 10.208556 28.569977 18.771516 H 0.0 **** 0.0
6355 H 8.952376 29.203971 18.212985 H 0.0 **** 0.0
6356 M 9.338631 28.585928 18.694436 M 0.0 **** 0.0
6357 O 31.745898 25.299877 44.920684 O 0.0 **** 0.0
6358 H 30.945205 25.350274 44.398592 H 0.0 **** 0.0
6359 H 31.473085 24.885004 45.739025 H 0.0 **** 0.0
6360 M 31.608476 25.253219 44.958607 M 0.0 **** 0.0
6361 O 17.917125 4.396177 31.238748 O 0.0 **** 0.0
6362 H 18.59751 4.988533 30.918716 H 0.0 **** 0.0
6363 H 18.219538 3.524089 30.9853 H 0.0 **** 0.0
6364 M 18.042936 4.360368 31.165336 M 0.0 **** 0.0
6365 O 34.13486 29.749244 34.683113 O 0.0 **** 0.0
6366 H 33.513823 29.020867 34.679983 H 0.0 **** 0.0
6367 H 33.585452 30.533067 34.683575 H 0.0 **** 0.0
6368 M 33.985028 29.756342 34.682772 M 0.0 **** 0.0
6369 O 5.286442 47.76458 8.490404 O 0.0 **** 0.0
6370 H 5.379825 46.911534 8.066351 H 0.0 **** 0.0
6371 H 5.188144 47.560771 9.420472 H 0.0 **** 0.0
6372 M 5.285813 47.62929 8.55518 M 0.0 **** 0.0
6373 O 43.130368 26.123216 29.673409 O 0.0 **** 0.0
6374 H 42.509631 26.661354 30.164654 H 0.0 **** 0.0
6375 H 43.486131 25.515158 30.321426 H 0.0 **** 0.0
6376 M 43.096448 26.114265 29.819249 M 0.0 **** 0.0
6377 O 32.690072 27.101188 42.198246 O 0.0 **** 0.0
6378 H 32.329662 27.813328 41.669861 H 0.0 **** 0.0
6379 H 31.985762 26.454439 42.241742 H 0.0 **** 0.0
6380 M 32.553774 27.109559 42.136174 M 0.0 **** 0.0
6381 O 33.162861 36.418169 18.337868 O 0.0 **** 0.0
6382 H 32.342872 35.9444 18.198618 H 0.0 **** 0.0
6383 H 33.131516 37.141369 17.711587 H 0.0 **** 0.0
6384 M 33.053879 36.450099 18.23987 M 0.0 **** 0.0
6385 O 26.44696 1.916448 7.487121 O 0.0 **** 0.0
6386 H 26.313656 1.002933 7.234239 H 0.0 **** 0.0
6387 H 25.563051 2.263887 7.606367 H 0.0 **** 0.0
6388 M 26.316744 1.843983 7.470014 M 0.0 **** 0.0
6389 O 4.404203 0.443369 17.09196 O 0.0 **** 0.0
6390 H 4.413304 1.333949 16.741228 H 0.0 **** 0.0
6391 H 3.711075 -8.3e-05 16.602927 H 0.0 **** 0.0
6392 M 4.316639 0.500607 16.98446 M 0.0 **** 0.0
6393 O 16.867272 9.12784 30.761648 O 0.0 **** 0.0
6394 H 17.354577 8.92949 31.561285 H 0.0 **** 0.0
6395 H 15.95302 9.170043 31.04199 H 0.0 **** 0.0
6396 M 16.812617 9.107851 30.899899 M 0.0 **** 0.0
6397 O 17.844677 36.331067 7.794025 O 0.0 **** 0.0
6398 H 18.53321 35.808516 7.382817 H 0.0 **** 0.0
6399 H 18.269708 36.735586 8.550294 H 0.0 **** 0.0
6400 M 17.987227 36.315958 7.838197 M 0.0 **** 0.0
6401 O 44.190444 0.089906 9.587428 O 0.0 **** 0.0
6402 H 43.344762 -0.0339 10.018385 H 0.0 **** 0.0
6403 H 44.402146 1.01172 9.734637 H 0.0 **** 0.0
6404 M 44.109286 0.192061 9.661441 M 0.0 **** 0.0
6405 O 47.406579 20.910382 30.572888 O 0.0 **** 0.0
6406 H 46.538221 21.299839 30.470387 H 0.0 **** 0.0
6407 H 48.000122 21.65912 30.63056 H 0.0 **** 0.0
6408 M 47.371399 21.056085 30.567149 M 0.0 **** 0.0
6409 O 12.656049 6.154506 12.27688 O 0.0 **** 0.0
6410 H 12.74658 6.092757 11.325975 H 0.0 **** 0.0
6411 H 12.993747 5.321018 12.604733 H 0.0 **** 0.0
6412 M 12.710868 6.039904 12.197122 M 0.0 **** 0.0
6413 O 13.299012 13.642338 27.670564 O 0.0 **** 0.0
6414 H 13.785154 14.453161 27.520692 H 0.0 **** 0.0
6415 H 13.022638 13.693853 28.585546 H 0.0 **** 0.0
6416 M 13.325864 13.752728 27.768508 M 0.0 **** 0.0
6417 O 13.139424 39.868446 9.659223 O 0.0 **** 0.0
6418 H 13.482496 40.735413 9.442663 H 0.0 **** 0.0
6419 H 12.188951 39.98147 9.666728 H 0.0 **** 0.0
6420 M 13.061669 39.993897 9.632461 M 0.0 **** 0.0
6421 O 44.149423 26.880642 47.311669 O 0.0 **** 0.0
6422 H 43.848103 27.592728 47.875911 H 0.0 **** 0.0
6423 H 45.063836 27.093095 47.124744 H 0.0 **** 0.0
6424 M 44.227906 26.998995 47.359971 M 0.0 **** 0.0
6425 O 34.91972 31.262656 24.480484 O 0.0 **** 0.0
6426 H 35.138568 32.16745 24.70338 H 0.0 **** 0.0
6427 H 33.969473 31.266955 24.365415 H 0.0 **** 0.0
6428 M 34.826092 31.379031 24.494288 M 0.0 **** 0.0
6429 O 4.116654 43.888268 37.916057 O 0.0 **** 0.0
6430 H 3.36181 43.30186 37.966703 H 0.0 **** 0.0
6431 H 4.847281 43.318714 37.675181 H 0.0 **** 0.0
6432 M 4.113554 43.74029 37.891705 M 0.0 **** 0.0
6433 O 21.671982 7.404246 5.057852 O 0.0 **** 0.0
6434 H 20.977936 8.060215 5.122924 H 0.0 **** 0.0
6435 H 22.483249 7.912253 5.059409 H 0.0 **** 0.0
6436 M 21.686988 7.553249 5.066381 M 0.0 **** 0.0
6437 O 0.587652 16.803863 16.578406 O 0.0 **** 0.0
6438 H -0.000162 17.180915 15.923779 H 0.0 **** 0.0
6439 H 0.004559 16.386959 17.212773 H 0.0 **** 0.0
6440 M 0.437761 16.798762 16.575812 M 0.0 **** 0.0
6441 O 9.454736 47.190531 12.127782 O 0.0 **** 0.0
6442 H 9.804145 48.00394 11.763765 H 0.0 **** 0.0
6443 H 9.750172 46.510355 11.522549 H 0.0 **** 0.0
6444 M 9.537284 47.207586 12.003706 M 0.0 **** 0.0
6445 O 18.84677 8.487602 25.997194 O 0.0 **** 0.0
6446 H 18.179269 9.028927 26.418664 H 0.0 **** 0.0
6447 H 18.605947 7.589462 26.224299 H 0.0 **** 0.0
6448 M 18.730493 8.441925 26.08022 M 0.0 **** 0.0
6449 O 14.08246 26.008613 42.079182 O 0.0 **** 0.0
6450 H 13.595407 25.185597 42.11983 H 0.0 **** 0.0
6451 H 14.485493 26.006339 41.210972 H 0.0 **** 0.0
6452 M 14.071704 25.902965 41.973243 M 0.0 **** 0.0
6453 O 28.775333 26.891992 18.036595 O 0.0 **** 0.0
6454 H 28.195655 27.643119 18.163131 H 0.0 **** 0.0
6455 H 28.183293 26.149858 17.914309 H 0.0 **** 0.0
6456 M 28.625338 26.893143 18.037139 M 0.0 **** 0.0
6457 O 31.519685 3.742587 10.065374 O 0.0 **** 0.0
6458 H 31.699975 4.56771 10.515814 H 0.0 **** 0.0
6459 H 31.66962 3.06919 10.728914 H 0.0 **** 0.0
6460 M 31.561958 3.76201 10.207978 M 0.0 **** 0.0
6461 O 13.359709 23.246242 6.070788 O 0.0 **** 0.0
6462 H 14.178173 22.770261 6.211457 H 0.0 **** 0.0
6463 H 12.844359 23.075698 6.859177 H 0.0 **** 0.0
6464 M 13.398511 23.163479 6.189719 M 0.0 **** 0.0
6465 O 28.889499 8.211807 12.327652 O 0.0 **** 0.0
6466 H 28.149306 8.319958 11.730453 H 0.0 **** 0.0
6467 H 28.564718 7.622067 13.008058 H 0.0 **** 0.0
6468 M 28.753169 8.150158 12.338303 M 0.0 **** 0.0
6469 O 17.033449 18.258611 26.06064 O 0.0 **** 0.0
6470 H 16.340492 18.868773 25.808168 H 0.0 **** 0.0
6471 H 17.762234 18.81959 26.325977 H 0.0 **** 0.0
6472 M 17.038035 18.408531 26.062287 M 0.0 **** 0.0
6473 O 16.472795 13.086058 22.573093 O 0.0 **** 0.0
6474 H 15.914321 13.849415 22.426053 H 0.0 **** 0.0
6475 H 17.325058 13.453702 22.807006 H 0.0 **** 0.0
6476 M 16.510404 13.23084 22.584214 M 0.0 **** 0.0
6477 O 21.813147 46.639753 4.534174 O 0.0 **** 0.0
6478 H 20.895769 46.899345 4.619373 H 0.0 **** 0.0
6479 H 21.900208 45.875514 5.1039 H 0.0 **** 0.0
6480 M 21.706856 46.575152 4.618012 M 0.0 **** 0.0
6481 O 22.536342 6.328843 35.926303 O 0.0 **** 0.0
6482 H 22.456256 5.382403 36.044904 H 0.0 **** 0.0
6483 H 21.634459 6.636572 35.836091 H 0.0 **** 0.0
6484 M 22.410638 6.24708 35.929937 M 0.0 **** 0.0
6485 O 39.961816 12.394871 6.008868 O 0.0 **** 0.0
6486 H 40.094406 11.532667 5.614846 H 0.0 **** 0.0
6487 H 40.668014 12.47701 6.649779 H 0.0 **** 0.0
6488 M 40.069192 12.295013 6.040473 M 0.0 **** 0.0
6489 O 27.799995 22.932622 8.715215 O 0.0 **** 0.0
6490 H 27.320261 23.673817 8.345467 H 0.0 **** 0.0
6491 H 27.169983 22.212012 8.709382 H 0.0 **** 0.0
6492 M 27.657934 22.935257 8.667136 M 0.0 **** 0.0
6493 O 14.496739 0.49197 25.650763 O 0.0 **** 0.0
6494 H 15.029036 0.011211 25.016918 H 0.0 **** 0.0
6495 H 13.676038 0.001431 25.696031 H 0.0 **** 0.0
6496 M 14.45982 0.367632 25.575418 M 0.0 **** 0.0
6497 O 27.782192 26.650178 12.738011 O 0.0 **** 0.0
6498 H 27.801523 25.697451 12.647643 H 0.0 **** 0.0
6499 H 26.85291 26.876203 12.698325 H 0.0 **** 0.0
6500 M 27.665707 26.557151 12.721362 M 0.0 **** 0.0
6501 O 9.838671 37.776215 10.120877 O 0.0 **** 0.0
6502 H 9.922263 37.922925 11.063064 H 0.0 **** 0.0
6503 H 8.951441 37.434866 10.008932 H 0.0 **** 0.0
6504 M 9.735795 37.751299 10.227158 M 0.0 **** 0.0
6505 O 24.304302 7.152993 18.672715 O 0.0 **** 0.0
6506 H 23.437043 6.764288 18.786733 H 0.0 **** 0.0
6507 H 24.909453 6.493047 19.011081 H 0.0 **** 0.0
6508 M 24.270749 7.018753 18.730626 M 0.0 **** 0.0
6509 O 16.946932 39.895214 31.005392 O 0.0 **** 0.0
6510 H 16.09335 39.736943 30.602184 H 0.0 **** 0.0
6511 H 17.057105 40.845352 30.968926 H 0.0 **** 0.0
6512 M 16.851766 39.996583 30.949108 M 0.0 **** 0.0
6513 O 20.931591 22.395808 23.078837 O 0.0 **** 0.0
6514 H 20.237368 23.028296 22.89379 H 0.0 **** 0.0
6515 H 21.362868 22.735405 23.862995 H 0.0 **** 0.0
6516 M 20.897931 22.520247 23.155531 M 0.0 **** 0.0
6517 O 33.783922 38.726574 8.728295 O 0.0 **** 0.0
6518 H 34.258743 37.900847 8.822887 H 0.0 **** 0.0
6519 H 32.8652 38.46809 8.655061 H 0.0 **** 0.0
6520 M 33.727097 38.587782 8.731029 M 0.0 **** 0.0
6521 O 38.593311 45.302501 13.848249 O 0.0 **** 0.0
6522 H 38.789745 44.722762 14.584146 H 0.0 **** 0.0
6523 H 38.369859 44.71092 13.129688 H 0.0 **** 0.0
6524 M 38.589853 45.152557 13.850468 M 0.0 **** 0.0
6525 O 2.38152 25.824279 30.553753 O 0.0 **** 0.0
6526 H 1.999407 26.692999 30.678424 H 0.0 **** 0.0
6527 H 3.165323 25.980215 30.026908 H 0.0 **** 0.0
6528 M 2.432941 25.955448 30.50227 M 0.0 **** 0.0
6529 O 7.084342 37.139841 24.369379 O 0.0 **** 0.0
6530 H 6.287076 37.502731 23.983495 H 0.0 **** 0.0
6531 H 7.382398 36.487531 23.735436 H 0.0 **** 0.0
6532 M 7.020437 37.102792 24.238828 M 0.0 **** 0.0
6533 O 15.404205 35.551612 5.640667 O 0.0 **** 0.0
6534 H 15.210538 34.714658 5.218494 H 0.0 **** 0.0
6535 H 16.334788 35.696864 5.469946 H 0.0 **** 0.0
6536 M 15.498539 35.463065 5.564769 M 0.0 **** 0.0
6537 O 42.757666 14.755326 14.018876 O 0.0 **** 0.0
6538 H 42.951219 14.943705 14.937178 H 0.0 **** 0.0
6539 H 43.169722 13.906866 13.855923 H 0.0 **** 0.0
6540 M 42.835192 14.670827 14.11557 M 0.0 **** 0.0
6541 O 13.376093 41.927452 11.732611 O 0.0 **** 0.0
6542 H 14.108234 42.006635 11.121115 H 0.0 **** 0.0
6543 H 13.013527 41.058235 11.561622 H 0.0 **** 0.0
6544 M 13.423403 41.826318 11.632443 M 0.0 **** 0.0
6545 O 23.749406 17.485094 1.177299 O 0.0 **** 0.0
6546 H 24.057556 17.464179 0.2713 H 0.0 **** 0.0
6547 H 23.867153 16.588666 1.491594 H 0.0 **** 0.0
6548 M 23.803926 17.367663 1.101554 M 0.0 **** 0.0
6549 O 29.791917 38.535493 13.148239 O 0.0 **** 0.0
6550 H 28.919325 38.471841 12.75996 H 0.0 **** 0.0
6551 H 30.383467 38.229894 12.460558 H 0.0 **** 0.0
6552 M 29.75594 38.488224 13.010503 M 0.0 **** 0.0
6553 O 28.78174 42.574288 9.722093 O 0.0 **** 0.0
6554 H 29.64811 42.816768 10.048949 H 0.0 **** 0.0
6555 H 28.936451 41.796279 9.186373 H 0.0 **** 0.0
6556 M 28.912451 42.505733 9.695356 M 0.0 **** 0.0
6557 O 18.599568 12.579243 8.574851 O 0.0 **** 0.0
6558 H 18.527933 11.749 9.0458 H 0.0 **** 0.0
6559 H 17.758637 12.674861 8.127728 H 0.0 **** 0.0
6560 M 18.482748 12.485202 8.577901 M 0.0 **** 0.0
6561 O 17.745818 33.788904 33.566517 O 0.0 **** 0.0
6562 H 18.359969 33.096273 33.810053 H 0.0 **** 0.0
6563 H 18.25957 34.594796 33.619675 H 0.0 **** 0.0
6564 M 17.890204 33.803403 33.604498 M 0.0 **** 0.0
6565 O 46.354022 12.38938 23.649013 O 0.0 **** 0.0
6566 H 46.090485 11.738271 22.998756 H 0.0 **** 0.0
6567 H 46.534812 11.880039 24.439023 H 0.0 **** 0.0
6568 M 46.343429 12.240828 23.666903 M 0.0 **** 0.0
6569 O 37.491706 26.171109 22.434393 O 0.0 **** 0.0
6570 H 38.341173 26.383826 22.047887 H 0.0 **** 0.0
6571 H 37.642357 25.354421 22.91037 H 0.0 **** 0.0
6572 M 37.619734 26.093793 22.445847 M 0.0 **** 0.0
6573 O 2.221773 46.68196 42.68685 O 0.0 **** 0.0
6574 H 1.956346 46.400132 43.562265 H 0.0 **** 0.0
6575 H 2.924284 47.313629 42.840799 H 0.0 **** 0.0
6576 M 2.277725 46.726744 42.818622 M 0.0 **** 0.0
6577 O 39.42776 2.47478 43.626908 O 0.0 **** 0.0
6578 H 40.384615 2.449158 43.626583 H 0.0 **** 0.0
6579 H 39.163053 1.554911 43.626546 H 0.0 **** 0.0
6580 M 39.516364 2.353745 43.62682 M 0.0 **** 0.0
6581 O 41.810271 16.299894 23.028946 O 0.0 **** 0.0
6582 H 41.177796 15.642316 23.31842 H 0.0 **** 0.0
6583 H 41.652079 16.387608 22.088994 H 0.0 **** 0.0
6584 M 41.709056 16.226944 22.945677 M 0.0 **** 0.0
6585 O 3.087785 46.649775 13.794276 O 0.0 **** 0.0
6586 H 3.4447 47.533869 13.709316 H 0.0 **** 0.0
6587 H 2.142616 46.77906 13.872823 H 0.0 **** 0.0
6588 M 3.012481 46.7795 13.793455 M 0.0 **** 0.0
6589 O 28.264693 29.76811 16.154709 O 0.0 **** 0.0
6590 H 27.75589 30.062335 15.399209 H 0.0 **** 0.0
6591 H 27.792152 29.001165 16.478327 H 0.0 **** 0.0
6592 M 28.139069 29.707596 16.099422 M 0.0 **** 0.0
6593 O 33.996158 21.489209 29.958394 O 0.0 **** 0.0
6594 H 33.245684 21.322322 29.38816 H 0.0 **** 0.0
6595 H 34.180705 20.643028 30.36601 H 0.0 **** 0.0
6596 M 33.923712 21.359523 29.937577 M 0.0 **** 0.0
6597 O 37.969536 21.198802 1.856136 O 0.0 **** 0.0
6598 H 38.29841 21.690336 1.103498 H 0.0 **** 0.0
6599 H 37.7851 21.866447 2.516788 H 0.0 **** 0.0
6600 M 37.988026 21.347191 1.844361 M 0.0 **** 0.0
6601 O 3.025253 47.79611 28.873996 O 0.0 **** 0.0
6602 H 3.020913 46.844979 28.766483 H 0.0 **** 0.0
6603 H 2.162293 48.000875 29.233996 H 0.0 **** 0.0
6604 M 2.914227 47.700566 28.906318 M 0.0 **** 0.0
6605 O 39.529034 11.639742 30.636905 O 0.0 **** 0.0
6606 H 39.737944 11.145636 29.84416 H 0.0 **** 0.0
6607 H 39.954333 12.487846 30.510147 H 0.0 **** 0.0
6608 M 39.610221 11.685058 30.519197 M 0.0 **** 0.0
6609 O 39.738857 19.835948 9.14653 O 0.0 **** 0.0
6610 H 40.3002 19.220683 9.618303 H 0.0 **** 0.0
6611 H 39.242126 19.28929 8.537718 H 0.0 **** 0.0
6612 M 39.747128 19.687207 9.128987 M 0.0 **** 0.0
6613 O 32.393281 44.070625 42.013835 O 0.0 **** 0.0
6614 H 32.624971 43.142222 42.038692 H 0.0 **** 0.0
6615 H 33.21562 44.527979 42.189378 H 0.0 **** 0.0
6616 M 32.52821 44.010325 42.039489 M 0.0 **** 0.0
6617 O 7.717706 8.764751 43.366991 O 0.0 **** 0.0
6618 H 6.965505 8.857317 43.951673 H 0.0 **** 0.0
6619 H 8.401132 9.301462 43.768363 H 0.0 **** 0.0
6620 M 7.708902 8.845307 43.493218 M 0.0 **** 0.0
6621 O 17.736651 -0.003175 32.467491 O 0.0 **** 0.0
6622 H 18.466605 0.426905 32.912942 H 0.0 **** 0.0
6623 H 17.248478 0.712638 32.060642 H 0.0 **** 0.0
6624 M 17.767602 0.143513 32.472433 M 0.0 **** 0.0
6625 O 20.322239 3.778298 45.427728 O 0.0 **** 0.0
6626 H 20.703516 3.832241 46.304054 H 0.0 **** 0.0
6627 H 19.404728 3.551166 45.578768 H 0.0 **** 0.0
6628 M 20.253594 3.756128 45.559244 M 0.0 **** 0.0
6629 O 22.676311 23.56963 11.303209 O 0.0 **** 0.0
6630 H 23.155688 23.795335 10.506037 H 0.0 **** 0.0
6631 H 22.47862 22.637851 11.208677 H 0.0 **** 0.0
6632 M 22.71237 23.479243 11.189059 M 0.0 **** 0.0
6633 O 42.534186 21.286689 3.549905 O 0.0 **** 0.0
6634 H 43.191496 21.938628 3.793109 H 0.0 **** 0.0
6635 H 41.695795 21.721156 3.706644 H 0.0 **** 0.0
6636 M 42.511005 21.425763 3.601102 M 0.0 **** 0.0
6637 O 10.627897 27.445556 39.135547 O 0.0 **** 0.0
6638 H 9.907719 26.815876 39.102728 H 0.0 **** 0.0
6639 H 11.417999 26.905623 39.15651 H 0.0 **** 0.0
6640 M 10.636848 27.295831 39.134029 M 0.0 **** 0.0
6641 O 17.985437 -0.003444 47.897586 O 0.0 **** 0.0
6642 H 18.92608 0.11642 48.028166 H 0.0 **** 0.0
6643 H 17.622227 0.881007 47.942913 H 0.0 **** 0.0
6644 M 18.059355 0.125121 47.920104 M 0.0 **** 0.0
6645 O 43.087821 35.452935 5.092068 O 0.0 **** 0.0
6646 H 43.343655 36.364497 4.951242 H 0.0 **** 0.0
6647 H 42.138606 35.485706 5.211005 H 0.0 **** 0.0
6648 M 42.999059 35.573822 5.089266 M 0.0 **** 0.0
6649 O 32.133244 8.867438 4.668671 O 0.0 **** 0.0
6650 H 32.138649 7.93348 4.878247 H 0.0 **** 0.0
6651 H 31.321971 9.195702 5.056365 H 0.0 **** 0.0
6652 M 32.030083 8.789902 4.745129 M 0.0 **** 0.0
6653 O 2.398629 32.052779 19.947974 O 0.0 **** 0.0
6654 H 1.546998 31.919471 20.364125 H 0.0 **** 0.0
6655 H 2.613808 32.967664 20.129391 H 0.0 **** 0.0
6656 M 2.317155 32.152831 20.024471 M 0.0 **** 0.0
6657 O 30.44744 36.327794 2.164346 O 0.0 **** 0.0
6658 H 31.136941 35.778572 2.537404 H 0.0 **** 0.0
6659 H 30.903278 37.113764 1.863195 H 0.0 **** 0.0
6660 M 30.594058 36.358101 2.173551 M 0.0 **** 0.0
6661 O 27.878942 47.868165 22.781315 O 0.0 **** 0.0
6662 H 27.329323 47.277371 23.296202 H 0.0 **** 0.0
6663 H 27.38686 48.009999 21.972632 H 0.0 **** 0.0
6664 M 27.745591 47.810693 22.743705 M 0.0 **** 0.0
6665 O 38.681583 34.621206 23.816344 O 0.0 **** 0.0
6666 H 39.193057 33.832343 23.636574 H 0.0 **** 0.0
6667 H 39.301154 35.341138 23.697776 H 0.0 **** 0.0
6668 M 38.826371 34.612382 23.778153 M 0.0 **** 0.0
6669 O 23.412211 38.559579 15.383473 O 0.0 **** 0.0
6670 H 23.734953 39.264808 14.822474 H 0.0 **** 0.0
6671 H 23.802145 37.765176 15.01864 H 0.0 **** 0.0
6672 M 23.503442 38.548164 15.264955 M 0.0 **** 0.0
6673 O 20.506657 0.877471 20.762143 O 0.0 **** 0.0
6674 H 21.035731 0.091849 20.900375 H 0.0 **** 0.0
6675 H 21.145032 1.586993 20.68945 H 0.0 **** 0.0
6676 M 20.656105 0.867729 20.770533 M 0.0 **** 0.0
6677 O 21.884988 42.139793 40.14198 O 0.0 **** 0.0
6678 H 22.381106 42.57654 39.44963 H 0.0 **** 0.0
6679 H 22.322013 41.29564 40.254426 H 0.0 **** 0.0
6680 M 22.004442 42.08764 40.067745 M 0.0 **** 0.0
6681 O 11.889549 44.149736 46.901298 O 0.0 **** 0.0
6682 H 12.457034 44.321334 47.652793 H 0.0 **** 0.0
6683 H 11.748101 45.009949 46.506008 H 0.0 **** 0.0
6684 M 11.944087 44.281821 46.946897 M 0.0 **** 0.0
6685 O 27.587245 17.308454 4.731678 O 0.0 **** 0.0
6686 H 27.9566 16.953828 3.922947 H 0.0 **** 0.0
6687 H 27.636589 18.258052 4.621865 H 0.0 **** 0.0
6688 M 27.640844 17.384618 4.614093 M 0.0 **** 0.0
6689 O 37.068669 30.497479 47.553202 O 0.0 **** 0.0
6690 H 37.947607 30.86331 47.652527 H 0.0 **** 0.0
6691 H 36.540158 31.227117 47.229886 H 0.0 **** 0.0
6692 M 37.113528 30.637713 47.524528 M 0.0 **** 0.0
6693 O 11.148282 27.379158 10.102943 O 0.0 **** 0.0
6694 H 10.484675 26.693771 10.181042 H 0.0 **** 0.0
6695 H 11.938841 26.917111 9.824092 H 0.0 **** 0.0
6696 M 11.164533 27.232272 10.077244 M 0.0 **** 0.0
6697 O 32.174778 0.720577 26.254033 O 0.0 **** 0.0
6698 H 31.372017 0.451558 26.700611 H 0.0 **** 0.0
6699 H 32.82517 0.069097 26.516317 H 0.0 **** 0.0
6700 M 32.155273 0.602742 26.344776 M 0.0 **** 0.0
6701 O 38.595486 34.056955 40.488263 O 0.0 **** 0.0
6702 H 38.569949 33.243434 39.984516 H 0.0 **** 0.0
6703 H 38.989315 34.695242 39.893523 H 0.0 **** 0.0
6704 M 38.642632 34.034523 40.347643 M 0.0 **** 0.0
6705 O 3.684248 6.884401 35.385302 O 0.0 **** 0.0
6706 H 3.154936 7.6748 35.491736 H 0.0 **** 0.0
6707 H 3.115675 6.17324 35.680604 H 0.0 **** 0.0
6708 M 3.543705 6.894545 35.436729 M 0.0 **** 0.0
6709 O 6.141818 41.227794 8.695939 O 0.0 **** 0.0
6710 H 6.594688 42.070738 8.671788 H 0.0 **** 0.0
6711 H 6.843611 40.577447 8.668306 H 0.0 **** 0.0
6712 M 6.289629 41.252449 8.68931 M 0.0 **** 0.0
6713 O 36.407369 16.37187 20.041845 O 0.0 **** 0.0
6714 H 35.478649 16.603616 20.043369 H 0.0 **** 0.0
6715 H 36.783633 16.893156 19.332681 H 0.0 **** 0.0
6716 M 36.336648 16.468267 19.951259 M 0.0 **** 0.0
6717 O -0.000529 4.81952 37.360103 O 0.0 **** 0.0
6718 H 0.323903 5.715653 37.449089 H 0.0 **** 0.0
6719 H 0.787567 4.276446 37.374317 H 0.0 **** 0.0
6720 M 0.141888 4.864716 37.373314 M 0.0 **** 0.0
6721 O 8.37486 18.681354 4.845421 O 0.0 **** 0.0
6722 H 8.097086 17.860613 4.438661 H 0.0 **** 0.0
6723 H 8.276661 18.528698 5.785252 H 0.0 **** 0.0
6724 M 8.326731 18.556747 4.913661 M 0.0 **** 0.0
6725 O 13.304823 6.859292 47.25509 O 0.0 **** 0.0
6726 H 12.50672 7.329247 47.013422 H 0.0 **** 0.0
6727 H 13.653294 7.346283 48.00184 H 0.0 **** 0.0
6728 M 13.247264 6.981793 47.319747 M 0.0 **** 0.0
6729 O 43.489329 6.530611 35.611817 O 0.0 **** 0.0
6730 H 44.40755 6.260257 35.614412 H 0.0 **** 0.0
6731 H 43.520842 7.48726 35.60413 H 0.0 **** 0.0
6732 M 43.610907 6.618466 35.611165 M 0.0 **** 0.0
6733 O 44.868825 20.819466 24.301314 O 0.0 **** 0.0
6734 H 44.011148 20.949433 23.896682 H 0.0 **** 0.0
6735 H 45.067544 21.658349 24.717266 H 0.0 **** 0.0
6736 M 44.78447 20.943491 24.302763 M 0.0 **** 0.0
6737 O 29.319738 30.183304 43.924862 O 0.0 **** 0.0
6738 H 28.522389 30.58904 44.265218 H 0.0 **** 0.0
6739 H 29.566224 30.728361 43.17761 H 0.0 **** 0.0
6740 M 29.249221 30.305018 43.872774 M 0.0 **** 0.0
6741 O 3.589848 35.0766 26.658105 O 0.0 **** 0.0
6742 H 3.231113 34.240244 26.95483 H 0.0 **** 0.0
6743 H 2.821889 35.596854 26.421879 H 0.0 **** 0.0
6744 M 3.445617 35.036135 26.66585 M 0.0 **** 0.0
6745 O 7.267861 10.348036 41.638839 O 0.0 **** 0.0
6746 H 6.953394 10.645648 42.492517 H 0.0 **** 0.0
6747 H 8.203198 10.191591 41.768835 H 0.0 **** 0.0
6748 M 7.34734 10.366107 41.764762 M 0.0 **** 0.0
6749 O 7.788109 45.993327 46.709979 O 0.0 **** 0.0
6750 H 7.028602 46.315869 46.224854 H 0.0 **** 0.0
6751 H 8.527642 46.484707 46.352396 H 0.0 **** 0.0
6752 M 7.785552 46.097519 46.602102 M 0.0 **** 0.0
6753 O 30.503152 1.786135 23.523783 O 0.0 **** 0.0
6754 H 29.901483 2.412059 23.926824 H 0.0 **** 0.0
6755 H 31.065707 1.497213 24.242313 H 0.0 **** 0.0
6756 M 30.498145 1.829276 23.667358 M 0.0 **** 0.0
6757 O 29.827561 27.101309 31.231375 O 0.0 **** 0.0
6758 H 30.735523 27.377277 31.106174 H 0.0 **** 0.0
6759 H 29.614261 27.37535 32.123358 H 0.0 **** 0.0
6760 M 29.916486 27.171717 31.329532 M 0.0 **** 0.0
6761 O 44.283759 40.25798 2.492257 O 0.0 **** 0.0
6762 H 44.399272 41.202591 2.38932 H 0.0 **** 0.0
6763 H 43.412939 40.082434 2.135767 H 0.0 **** 0.0
6764 M 44.18707 40.35643 2.433445 M 0.0 **** 0.0
6765 O 37.384499 3.98892 8.588316 O 0.0 **** 0.0
6766 H 38.127799 3.889331 7.993492 H 0.0 **** 0.0
6767 H 36.863515 4.694693 8.205317 H 0.0 **** 0.0
6768 M 37.412958 4.066519 8.463143 M 0.0 **** 0.0
6769 O 2.491788 10.947149 42.11817 O 0.0 **** 0.0
6770 H 3.28024 10.502369 42.429205 H 0.0 **** 0.0
6771 H 2.759727 11.859006 42.004357 H 0.0 **** 0.0
6772 M 2.627019 11.006941 42.143417 M 0.0 **** 0.0
6773 O 41.348429 37.30413 23.032456 O 0.0 **** 0.0
6774 H 41.14232 37.377439 22.100591 H 0.0 **** 0.0
6775 H 40.630863 37.758931 23.47346 H 0.0 **** 0.0
6776 M 41.230187 37.371735 22.96962 M 0.0 **** 0.0
6777 O 11.442026 9.730789 7.897575 O 0.0 **** 0.0
6778 H 11.695982 10.002294 8.77963 H 0.0 **** 0.0
6779 H 10.532567 9.445881 7.986684 H 0.0 **** 0.0
6780 M 11.358113 9.729073 8.021896 M 0.0 **** 0.0
6781 O 22.789792 20.477111 12.945738 O 0.0 **** 0.0
6782 H 22.229287 20.688489 12.199157 H 0.0 **** 0.0
6783 H 22.368353 19.721937 13.35602 H 0.0 **** 0.0
6784 M 22.664091 20.407498 12.902688 M 0.0 **** 0.0
6785 O 18.645612 39.28873 42.667481 O 0.0 **** 0.0
6786 H 18.891366 39.442084 41.755167 H 0.0 **** 0.0
6787 H 18.701009 38.339157 42.774583 H 0.0 **** 0.0
6788 M 18.684163 39.186804 42.564403 M 0.0 **** 0.0
6789 O 39.823847 26.05678 2.837417 O 0.0 **** 0.0
6790 H 40.207222 26.036194 1.960589 H 0.0 **** 0.0
6791 H 39.729934 26.988331 3.036472 H 0.0 **** 0.0
6792 M 39.860902 26.173395 2.750654 M 0.0 **** 0.0
6793 O 41.77397 41.380307 14.706781 O 0.0 **** 0.0
6794 H 41.771581 41.71482 13.80994 H 0.0 **** 0.0
6795 H 41.078476 40.72277 14.71952 H 0.0 **** 0.0
6796 M 41.684632 41.338956 14.593605 M 0.0 **** 0.0
6797 O 24.209698 46.834569 7.450826 O 0.0 **** 0.0
6798 H 24.408974 45.933493 7.196699 H 0.0 **** 0.0
6799 H 23.277242 46.936997 7.260396 H 0.0 **** 0.0
6800 M 24.115842 46.732332 7.393917 M 0.0 **** 0.0
6801 O 40.344506 17.297842 2.174695 O 0.0 **** 0.0
6802 H 39.960505 16.431343 2.308675 H 0.0 **** 0.0
6803 H 41.096805 17.141308 1.603931 H 0.0 **** 0.0
6804 M 40.391653 17.166881 2.118781 M 0.0 **** 0.0
6805 O 45.861406 16.619192 3.151644 O 0.0 **** 0.0
6806 H 45.917533 15.891798 3.771303 H 0.0 **** 0.0
6807 H 45.84986 16.20078 2.290815 H 0.0 **** 0.0
6808 M 45.867113 16.472515 3.120772 M 0.0 **** 0.0
6809 O 42.753634 13.079312 6.313 O 0.0 **** 0.0
6810 H 43.277537 12.342567 6.627579 H 0.0 **** 0.0
6811 H 43.396928 13.712814 5.995076 H 0.0 **** 0.0
6812 M 42.90305 13.066095 6.312572 M 0.0 **** 0.0
6813 O 37.243654 43.975666 4.697827 O 0.0 **** 0.0
6814 H 37.509809 44.60275 5.370253 H 0.0 **** 0.0
6815 H 37.523999 44.37395 3.87381 H 0.0 **** 0.0
6816 M 37.313613 44.106926 4.678422 M 0.0 **** 0.0
6817 O 29.083008 1.873954 7.518678 O 0.0 **** 0.0
6818 H 28.508462 1.229726 7.932315 H 0.0 **** 0.0
6819 H 28.520265 2.632446 7.362991 H 0.0 **** 0.0
6820 M 28.937421 1.888581 7.551699 M 0.0 **** 0.0
6821 O 30.082093 4.948958 32.121197 O 0.0 **** 0.0
6822 H 29.182264 5.203255 31.916575 H 0.0 **** 0.0
6823 H 30.616445 5.671878 31.792437 H 0.0 **** 0.0
6824 M 30.035307 5.074054 32.052917 M 0.0 **** 0.0
6825 O 27.455157 7.099777 25.519121 O 0.0 **** 0.0
6826 H 26.550391 6.811166 25.638833 H 0.0 **** 0.0
6827 H 27.957378 6.288711 25.44054 H 0.0 **** 0.0
6828 M 27.403626 6.959005 25.524386 M 0.0 **** 0.0
6829 O 32.865112 27.719446 6.282609 O 0.0 **** 0.0
6830 H 33.356027 27.124071 6.848966 H 0.0 **** 0.0
6831 H 33.483212 27.957641 5.591636 H 0.0 **** 0.0
6832 M 33.00708 27.673722 6.266657 M 0.0 **** 0.0
6833 O 17.844574 30.820845 23.072521 O 0.0 **** 0.0
6834 H 18.747075 30.550996 23.242531 H 0.0 **** 0.0
6835 H 17.38026 30.63317 23.888253 H 0.0 **** 0.0
6836 M 17.900668 30.762276 23.198709 M 0.0 **** 0.0
6837 O 8.980352 11.05345 39.73006 O 0.0 **** 0.0
6838 H 9.542151 10.442796 39.252869 H 0.0 **** 0.0
6839 H 8.094575 10.713268 39.603954 H 0.0 **** 0.0
6840 M 8.938879 10.931731 39.65283 M 0.0 **** 0.0
6841 O 41.559334 42.492012 19.570465 O 0.0 **** 0.0
6842 H 41.055235 42.942225 20.24827 H 0.0 **** 0.0
6843 H 42.457714 42.797191 19.696989 H 0.0 **** 0.0
6844 M 41.609807 42.588711 19.673429 M 0.0 **** 0.0
6845 O 32.7479 5.18785 22.952047 O 0.0 **** 0.0
6846 H 32.717856 6.13721 22.833549 H 0.0 **** 0.0
6847 H 33.680812 4.983396 23.016098 H 0.0 **** 0.0
6848 M 32.863478 5.283207 22.945077 M 0.0 **** 0.0
6849 O 6.779136 45.578255 42.135413 O 0.0 **** 0.0
6850 H 6.426221 44.905018 41.553664 H 0.0 **** 0.0
6851 H 7.495224 45.973644 41.638307 H 0.0 **** 0.0
6852 M 6.825627 45.542687 41.997306 M 0.0 **** 0.0
6853 O 39.85265 14.812324 21.157133 O 0.0 **** 0.0
6854 H 39.367732 15.287431 21.831934 H 0.0 **** 0.0
6855 H 40.420475 14.215697 21.644821 H 0.0 **** 0.0
6856 M 39.863263 14.796768 21.305946 M 0.0 **** 0.0
6857 O 6.192066 5.65985 10.921024 O 0.0 **** 0.0
6858 H 5.942566 6.560778 10.715337 H 0.0 **** 0.0
6859 H 5.613749 5.40918 11.641401 H 0.0 **** 0.0
6860 M 6.086095 5.743091 10.986911 M 0.0 **** 0.0
6861 O 21.440301 46.48734 41.804205 O 0.0 **** 0.0
6862 H 22.045186 46.159721 42.469794 H 0.0 **** 0.0
6863 H 21.758178 46.10949 40.984198 H 0.0 **** 0.0
6864 M 21.558426 46.397031 41.784438 M 0.0 **** 0.0
6865 O 41.477074 48.000992 10.577394 O 0.0 **** 0.0
6866 H 42.387784 47.940055 10.865703 H 0.0 **** 0.0
6867 H 41.474833 47.607939 9.704621 H 0.0 **** 0.0
6868 M 41.59337 47.942876 10.502575 M 0.0 **** 0.0
6869 O 18.677632 46.567937 15.028631 O 0.0 **** 0.0
6870 H 17.770103 46.691225 15.306877 H 0.0 **** 0.0
6871 H 19.031763 47.454942 14.965051 H 0.0 **** 0.0
6872 M 18.60679 46.697267 15.056111 M 0.0 **** 0.0
6873 O 33.116247 32.180253 29.685058 O 0.0 **** 0.0
6874 H 33.619321 32.755218 30.261739 H 0.0 **** 0.0
6875 H 32.305429 32.009509 30.164275 H 0.0 **** 0.0
6876 M 33.076852 32.231999 29.820226 M 0.0 **** 0.0
6877 O 24.24394 11.714905 31.041371 O 0.0 **** 0.0
6878 H 23.398874 11.312647 31.242074 H 0.0 **** 0.0
6879 H 24.146861 12.626796 31.315705 H 0.0 **** 0.0
6880 M 24.123334 11.780145 31.102182 M 0.0 **** 0.0
6881 O 19.515086 35.116595 36.42288 O 0.0 **** 0.0
6882 H 20.404293 35.449278 36.300967 H 0.0 **** 0.0
6883 H 19.114283 35.179677 35.555928 H 0.0 **** 0.0
6884 M 19.577608 35.167258 36.296293 M 0.0 **** 0.0
6885 O 38.098027 41.015404 32.721637 O 0.0 **** 0.0
6886 H 38.300811 40.173114 33.128642 H 0.0 **** 0.0
6887 H 37.385797 40.822104 32.112053 H 0.0 **** 0.0
6888 M 38.032811 40.882836 32.695704 M 0.0 **** 0.0
6889 O 26.507339 6.408955 47.911714 O 0.0 **** 0.0
6890 H 27.398092 6.059514 47.88566 H 0.0 **** 0.0
6891 H 26.623086 7.354133 48.009028 H 0.0 **** 0.0
6892 M 26.636184 6.485217 47.920836 M 0.0 **** 0.0
6893 O 32.066686 41.804341 44.437343 O 0.0 **** 0.0
6894 H 32.837222 42.364699 44.52955 H 0.0 **** 0.0
6895 H 31.336797 42.414989 44.334384 H 0.0 **** 0.0
6896 M 32.071889 41.954245 44.435967 M 0.0 **** 0.0
6897 O 35.795104 7.399498 2.366389 O 0.0 **** 0.0
6898 H 36.465611 6.934754 2.867051 H 0.0 **** 0.0
6899 H 35.419037 6.732474 1.792035 H 0.0 **** 0.0
6900 M 35.832796 7.254617 2.356956 M 0.0 **** 0.0
6901 O 18.223358 1.457392 39.822681 O 0.0 **** 0.0
6902 H 17.592266 0.890991 39.378675 H 0.0 **** 0.0
6903 H 18.08552 2.321211 39.434034 H 0.0 **** 0.0
6904 M 18.124925 1.495466 39.716091 M 0.0 **** 0.0
6905 O 29.697627 1.980125 47.399995 O 0.0 **** 0.0
6906 H 29.603939 2.471671 46.584009 H 0.0 **** 0.0
6907 H 29.138501 1.212057 47.283033 H 0.0 **** 0.0
6908 M 29.614058 1.944726 47.280566 M 0.0 **** 0.0
6909 O 30.206366 40.47658 40.516791 O 0.0 **** 0.0
6910 H 29.275894 40.701111 40.522798 H 0.0 **** 0.0
6911 H 30.222456 39.519681 40.534498 H 0.0 **** 0.0
6912 M 30.089314 40.382828 40.519826 M 0.0 **** 0.0
6913 O 32.171107 10.991272 4.127155 O 0.0 **** 0.0
6914 H 31.532457 11.514668 3.642995 H 0.0 **** 0.0
6915 H 32.990819 11.479116 4.047729 H 0.0 **** 0.0
6916 M 32.194286 11.120723 4.055009 M 0.0 **** 0.0
6917 O 9.438749 -0.011256 42.34291 O 0.0 **** 0.0
6918 H 9.966527 0.182574 41.568242 H 0.0 **** 0.0
6919 H 9.363909 0.827349 42.798287 H 0.0 **** 0.0
6920 M 9.496731 0.120909 42.302037 M 0.0 **** 0.0
6921 O 23.269971 42.481116 6.700297 O 0.0 **** 0.0
6922 H 23.998141 42.955745 6.299393 H 0.0 **** 0.0
6923 H 23.618987 42.165851 7.533979 H 0.0 **** 0.0
6924 M 23.407864 42.501516 6.755698 M 0.0 **** 0.0
6925 O 41.203451 28.090929 45.376889 O 0.0 **** 0.0
6926 H 40.541656 28.080688 46.068374 H 0.0 **** 0.0
6927 H 41.326779 29.018746 45.176453 H 0.0 **** 0.0
6928 M 41.13452 28.20839 45.439749 M 0.0 **** 0.0
6929 O 10.515802 30.858973 2.001821 O 0.0 **** 0.0
6930 H 10.998733 31.567695 2.426931 H 0.0 **** 0.0
6931 H 10.743725 30.07749 2.505373 H 0.0 **** 0.0
6932 M 10.606801 30.849659 2.120702 M 0.0 **** 0.0
6933 O 16.343714 19.399416 28.278227 O 0.0 **** 0.0
6934 H 16.870033 19.012322 28.977781 H 0.0 **** 0.0
6935 H 16.902463 20.082447 27.90742 H 0.0 **** 0.0
6936 M 16.482616 19.4373 28.320311 M 0.0 **** 0.0
6937 O 0.283278 6.672102 6.339968 O 0.0 **** 0.0
6938 H 0.677911 6.012748 5.769228 H 0.0 **** 0.0
6939 H 0.003288 6.183131 7.113752 H 0.0 **** 0.0
6940 M 0.297954 6.525102 6.36596 M 0.0 **** 0.0
6941 O 26.481821 43.317499 17.356209 O 0.0 **** 0.0
6942 H 26.840661 42.430171 17.366764 H 0.0 **** 0.0
6943 H 27.250891 43.887273 17.345382 H 0.0 **** 0.0
6944 M 26.626207 43.276848 17.356174 M 0.0 **** 0.0
6945 O 18.236831 41.785863 40.497539 O 0.0 **** 0.0
6946 H 17.624955 42.488759 40.71611 H 0.0 **** 0.0
6947 H 19.09911 42.200361 40.527466 H 0.0 **** 0.0
6948 M 18.268886 41.928903 40.52935 M 0.0 **** 0.0
6949 O 13.223426 22.880641 30.086591 O 0.0 **** 0.0
6950 H 12.278646 22.849067 29.936186 H 0.0 **** 0.0
6951 H 13.315113 23.269784 30.956297 H 0.0 **** 0.0
6952 M 13.114219 22.926414 30.17867 M 0.0 **** 0.0
6953 O 47.624324 16.999072 18.47427 O 0.0 **** 0.0
6954 H 48.000472 17.777036 18.885991 H 0.0 **** 0.0
6955 H 47.920579 16.271274 19.020871 H 0.0 **** 0.0
6956 M 47.7104 17.005494 18.596947 M 0.0 **** 0.0
6957 O 36.416067 33.770827 15.086125 O 0.0 **** 0.0
6958 H 36.298008 33.968535 14.157038 H 0.0 **** 0.0
6959 H 35.529257 33.622711 15.414544 H 0.0 **** 0.0
6960 M 36.287431 33.777176 15.009232 M 0.0 **** 0.0
6961 O 24.875965 9.419777 15.119157 O 0.0 **** 0.0
6962 H 24.217317 8.857347 15.526691 H 0.0 **** 0.0
6963 H 24.373442 10.137752 14.734176 H 0.0 **** 0.0
6964 M 24.72732 9.439689 15.122044 M 0.0 **** 0.0
6965 O 32.302028 4.160793 37.101088 O 0.0 **** 0.0
6966 H 32.886806 3.407483 37.0187 H 0.0 **** 0.0
6967 H 31.622772 3.871802 37.710452 H 0.0 **** 0.0
6968 M 32.289934 4.027365 37.168547 M 0.0 **** 0.0
6969 O 17.928905 30.50336 46.248815 O 0.0 **** 0.0
6970 H 16.982408 30.365588 46.286101 H 0.0 **** 0.0
6971 H 18.300123 29.621079 46.251109 H 0.0 **** 0.0
6972 M 17.855262 30.37278 46.253881 M 0.0 **** 0.0
6973 O 41.062838 37.09878 11.993848 O 0.0 **** 0.0
6974 H 40.285015 37.620079 12.192512 H 0.0 **** 0.0
6975 H 41.779556 37.733077 11.979273 H 0.0 **** 0.0
6976 M 41.055016 37.246711 12.017414 M 0.0 **** 0.0
6977 O 24.268926 46.581396 38.696844 O 0.0 **** 0.0
6978 H 24.78105 46.055495 39.311162 H 0.0 **** 0.0
6979 H 23.362931 46.311605 38.847224 H 0.0 **** 0.0
6980 M 24.218506 46.479537 38.794735 M 0.0 **** 0.0
6981 O 38.056262 24.217761 9.524733 O 0.0 **** 0.0
6982 H 37.243833 24.282754 10.026692 H 0.0 **** 0.0
6983 H 38.072378 23.313856 9.21021 H 0.0 **** 0.0
6984 M 37.954324 24.11037 9.548727 M 0.0 **** 0.0
6985 O 21.167156 40.008921 16.668413 O 0.0 **** 0.0
6986 H 20.658634 39.198267 16.646651 H 0.0 **** 0.0
6987 H 22.021279 39.747273 17.012279 H 0.0 **** 0.0
6988 M 21.211397 39.871653 16.709647 M 0.0 **** 0.0
6989 O 15.765369 15.366011 32.127934 O 0.0 **** 0.0
6990 H 16.713037 15.286054 32.019483 H 0.0 **** 0.0
6991 H 15.475338 14.484299 32.361805 H 0.0 **** 0.0
6992 M 15.849555 15.242905 32.14399 M 0.0 **** 0.0
6993 O 38.436752 7.078311 8.311378 O 0.0 **** 0.0
6994 H 37.749767 7.025559 8.97583 H 0.0 **** 0.0
6995 H 38.36738 6.254729 7.828543 H 0.0 **** 0.0
6996 M 38.339929 6.966129 8.334628 M 0.0 **** 0.0
6997 O 7.984546 41.542736 13.765424 O 0.0 **** 0.0
6998 H 8.596335 40.864079 13.480173 H 0.0 **** 0.0
6999 H 7.171297 41.071734 13.94712 H 0.0 **** 0.0
7000 M 7.958757 41.395565 13.752168 M 0.0 **** 0.0
7001 O 24.39609 46.282245 4.175619 O 0.0 **** 0.0
7002 H 25.131744 45.713224 3.94922 H 0.0 **** 0.0
7003 H 24.088236 45.952109 5.019695 H 0.0 **** 0.0
7004 M 24.450853 46.167142 4.25469 M 0.0 **** 0.0
7005 O 9.749861 23.098857 16.184026 O 0.0 **** 0.0
7006 H 8.953562 22.568051 16.203543 H 0.0 **** 0.0
7007 H 10.424061 22.534106 16.561833 H 0.0 **** 0.0
7008 M 9.734231 22.958612 16.234888 M 0.0 **** 0.0
7009 O 2.093513 8.139529 39.087506 O 0.0 **** 0.0
7010 H 2.244752 7.275643 39.470984 H 0.0 **** 0.0
7011 H 2.299032 8.754128 39.791963 H 0.0 **** 0.0
7012 M 2.139182 8.107617 39.226776 M 0.0 **** 0.0
7013 O 23.927056 4.726397 20.013798 O 0.0 **** 0.0
7014 H 23.747922 4.607446 19.081065 H 0.0 **** 0.0
7015 H 24.864698 4.555209 20.101837 H 0.0 **** 0.0
7016 M 24.024155 4.689255 19.905666 M 0.0 **** 0.0
7017 O 38.3583 36.817524 46.777572 O 0.0 **** 0.0
7018 H 38.195266 36.780179 47.720044 H 0.0 **** 0.0
7019 H 38.723162 37.690322 46.631532 H 0.0 **** 0.0
7020 M 38.384137 36.924473 46.879525 M 0.0 **** 0.0
7021 O 29.791752 43.055377 32.227059 O 0.0 **** 0.0
7022 H 30.182074 43.911911 32.400919 H 0.0 **** 0.0
7023 H 30.392345 42.430904 32.633938 H 0.0 **** 0.0
7024 M 29.918602 43.085083 32.301401 M 0.0 **** 0.0
7025 O 7.869845 15.607722 9.558686 O 0.0 **** 0.0
7026 H 8.083668 14.755239 9.1795 H 0.0 **** 0.0
7027 H 8.624487 15.822616 10.106924 H 0.0 **** 0.0
7028 M 7.993821 15.526102 9.580327 M 0.0 **** 0.0
7029 O 6.251209 5.645994 1.632517 O 0.0 **** 0.0
7030 H 6.889385 5.756264 0.927676 H 0.0 **** 0.0
7031 H 6.702224 5.960578 2.416004 H 0.0 **** 0.0
7032 M 6.390639 5.700381 1.642585 M 0.0 **** 0.0
7033 O 17.615609 25.530778 22.132633 O 0.0 **** 0.0
7034 H 17.073086 26.254615 21.819652 H 0.0 **** 0.0
7035 H 17.131594 24.743224 21.884205 H 0.0 **** 0.0
7036 M 17.484199 25.522622 22.060765 M 0.0 **** 0.0
7037 O 30.529489 10.05687 8.393377 O 0.0 **** 0.0
7038 H 31.376011 10.337387 8.741142 H 0.0 **** 0.0
7039 H 29.895912 10.32471 9.059012 H 0.0 **** 0.0
7040 M 30.556749 10.127067 8.523105 M 0.0 **** 0.0
7041 O 11.008334 12.200267 28.095648 O 0.0 **** 0.0
7042 H 10.22581 11.9351 27.612357 H 0.0 **** 0.0
7043 H 11.074663 11.56747 28.810768 H 0.0 **** 0.0
7044 M 10.916652 12.085316 28.125325 M 0.0 **** 0.0
7045 O 34.792019 33.870924 5.260952 O 0.0 **** 0.0
7046 H 34.226461 33.898254 6.032719 H 0.0 **** 0.0
7047 H 35.176507 32.994471 5.276094 H 0.0 **** 0.0
7048 M 34.76884 33.762225 5.361686 M 0.0 **** 0.0
7049 O 2.882317 4.844275 30.445863 O 0.0 **** 0.0
7050 H 1.950061 4.679132 30.586776 H 0.0 **** 0.0
7051 H 3.114663 5.491673 31.111535 H 0.0 **** 0.0
7052 M 2.792719 4.90601 30.549116 M 0.0 **** 0.0
7053 O 16.10802 13.181718 42.725541 O 0.0 **** 0.0
7054 H 15.248945 13.551449 42.521779 H 0.0 **** 0.0
7055 H 16.158991 12.386535 42.195149 H 0.0 **** 0.0
7056 M 16.004572 13.127255 42.63156 M 0.0 **** 0.0
7057 O 34.60037 24.485808 1.804873 O 0.0 **** 0.0
7058 H 34.613672 23.545984 1.985929 H 0.0 **** 0.0
7059 H 35.507469 24.701329 1.588189 H 0.0 **** 0.0
7060 M 34.718193 24.393088 1.800313 M 0.0 **** 0.0
7061 O 24.711515 41.463914 34.374775 O 0.0 **** 0.0
7062 H 23.832182 41.121329 34.214658 H 0.0 **** 0.0
7063 H 24.570377 42.372703 34.640129 H 0.0 **** 0.0
7064 M 24.580882 41.536395 34.388247 M 0.0 **** 0.0
7065 O 39.507648 18.400555 17.480592 O 0.0 **** 0.0
7066 H 39.372944 17.827363 16.725917 H 0.0 **** 0.0
7067 H 40.330776 18.100376 17.866055 H 0.0 **** 0.0
7068 M 39.595775 18.288752 17.433329 M 0.0 **** 0.0
7069 O 37.49058 38.458217 44.813315 O 0.0 **** 0.0
7070 H 37.599951 37.906204 44.03901 H 0.0 **** 0.0
7071 H 38.307609 38.953397 44.872376 H 0.0 **** 0.0
7072 M 37.609171 38.450942 44.721755 M 0.0 **** 0.0
7073 O 1.105781 26.750155 9.516511 O 0.0 **** 0.0
7074 H 2.046083 26.588956 9.438574 H 0.0 **** 0.0
7075 H 0.721469 25.880392 9.626261 H 0.0 **** 0.0
7076 M 1.176954 26.618179 9.520584 M 0.0 **** 0.0
7077 O 18.377944 22.235293 20.318807 O 0.0 **** 0.0
7078 H 17.540087 21.772496 20.325403 H 0.0 **** 0.0
7079 H 18.146326 23.148582 20.150034 H 0.0 **** 0.0
7080 M 18.241038 22.292962 20.298046 M 0.0 **** 0.0
7081 O 19.789957 20.022196 39.83568 O 0.0 **** 0.0
7082 H 20.700725 20.316587 39.827708 H 0.0 **** 0.0
7083 H 19.277471 20.82884 39.88966 H 0.0 **** 0.0
7084 M 19.840942 20.163142 39.841569 M 0.0 **** 0.0
7085 O 38.2855 8.453399 28.125782 O 0.0 **** 0.0
7086 H 37.774917 9.260463 28.061114 H 0.0 **** 0.0
7087 H 38.302622 8.254611 29.061954 H 0.0 **** 0.0
7088 M 38.222331 8.531266 28.237345 M 0.0 **** 0.0
7089 O 20.568805 39.380447 1.471694 O 0.0 **** 0.0
7090 H 19.630253 39.192833 1.483874 H 0.0 **** 0.0
7091 H 20.62322 40.335254 1.511839 H 0.0 **** 0.0
7092 M 20.455625 39.478657 1.478392 M 0.0 **** 0.0
7093 O 40.906333 34.991976 0.670147 O 0.0 **** 0.0
7094 H 41.578647 35.051503 1.348881 H 0.0 **** 0.0
7095 H 40.533483 34.116973 0.777761 H 0.0 **** 0.0
7096 M 40.944668 34.887585 0.77081 M 0.0 **** 0.0
7097 O 9.54847 6.227728 27.721346 O 0.0 **** 0.0
7098 H 10.477792 6.387189 27.886151 H 0.0 **** 0.0
7099 H 9.471421 5.274351 27.684405 H 0.0 **** 0.0
7100 M 9.657572 6.126097 27.737714 M 0.0 **** 0.0
7101 O 42.286884 29.785007 15.521283 O 0.0 **** 0.0
7102 H 42.060624 29.556271 14.619776 H 0.0 **** 0.0
7103 H 41.740307 29.211742 16.05873 H 0.0 **** 0.0
7104 M 42.187952 29.682341 15.474679 M 0.0 **** 0.0
7105 O 7.438041 30.012604 5.316418 O 0.0 **** 0.0
7106 H 7.750943 30.545411 6.04747 H 0.0 **** 0.0
7107 H 6.563619 30.353399 5.128076 H 0.0 **** 0.0
7108 M 7.366159 30.124436 5.385891 M 0.0 **** 0.0
7109 O 24.481978 0.903011 12.503289 O 0.0 **** 0.0
7110 H 24.539599 0.540813 11.619139 H 0.0 **** 0.0
7111 H 24.629279 1.841772 12.388136 H 0.0 **** 0.0
7112 M 24.50821 0.976819 12.375365 M 0.0 **** 0.0
7113 O 1.528458 8.082701 1.919814 O 0.0 **** 0.0
7114 H 1.433607 7.130383 1.901856 H 0.0 **** 0.0
7115 H 0.630399 8.412866 1.946434 H 0.0 **** 0.0
7116 M 1.401353 8.003057 1.920923 M 0.0 **** 0.0
7117 O 34.742541 3.448618 38.868545 O 0.0 **** 0.0
7118 H 34.949097 3.630288 37.951725 H 0.0 **** 0.0
7119 H 33.879881 3.841165 39.002535 H 0.0 **** 0.0
7120 M 34.658551 3.522125 38.768333 M 0.0 **** 0.0
7121 O 5.752606 5.989566 33.677931 O 0.0 **** 0.0
7122 H 6.334946 5.425804 33.168734 H 0.0 **** 0.0
7123 H 5.542504 5.475714 34.457701 H 0.0 **** 0.0
7124 M 5.800257 5.851617 33.712568 M 0.0 **** 0.0
7125 O 5.990031 3.590961 45.770634 O 0.0 **** 0.0
7126 H 6.467839 4.104215 45.119098 H 0.0 **** 0.0
7127 H 5.958631 2.707292 45.404066 H 0.0 **** 0.0
7128 M 6.047177 3.543543 45.640304 M 0.0 **** 0.0
7129 O 42.801574 20.273776 18.164468 O 0.0 **** 0.0
7130 H 43.01764 19.373023 17.923242 H 0.0 **** 0.0
7131 H 43.634796 20.654263 18.442315 H 0.0 **** 0.0
7132 M 42.935896 20.207175 18.169156 M 0.0 **** 0.0
7133 O 20.117784 26.039907 20.349577 O 0.0 **** 0.0
7134 H 20.161609 25.245988 20.882494 H 0.0 **** 0.0
7135 H 21.025083 26.208886 20.095644 H 0.0 **** 0.0
7136 M 20.23954 25.959907 20.38529 M 0.0 **** 0.0
7137 O 8.25918 7.468732 31.703207 O 0.0 **** 0.0
7138 H 9.077234 7.619388 32.176831 H 0.0 **** 0.0
7139 H 8.517303 6.961176 30.933799 H 0.0 **** 0.0
7140 M 8.396944 7.423044 31.665343 M 0.0 **** 0.0
7141 O 27.941253 5.52633 12.541779 O 0.0 **** 0.0
7142 H 27.266488 4.933025 12.871792 H 0.0 **** 0.0
7143 H 27.491173 6.062079 11.888611 H 0.0 **** 0.0
7144 M 27.797259 5.518962 12.500411 M 0.0 **** 0.0
7145 O 6.239312 22.424291 37.482274 O 0.0 **** 0.0
7146 H 6.521948 22.870673 38.280452 H 0.0 **** 0.0
7147 H 5.940736 21.565191 37.780651 H 0.0 **** 0.0
7148 M 6.237271 22.371458 37.622647 M 0.0 **** 0.0
7149 O 4.880069 10.574012 25.899074 O 0.0 **** 0.0
7150 H 4.898472 9.619015 25.961298 H 0.0 **** 0.0
7151 H 5.580192 10.866081 26.482814 H 0.0 **** 0.0
7152 M 4.97205 10.489149 25.981766 M 0.0 **** 0.0
7153 O 38.207414 42.288049 43.412859 O 0.0 **** 0.0
7154 H 37.296249 42.572964 43.482365 H 0.0 **** 0.0
7155 H 38.208545 41.398919 43.767367 H 0.0 **** 0.0
7156 M 38.090918 42.210702 43.467138 M 0.0 **** 0.0
7157 O 39.679936 7.182454 42.899257 O 0.0 **** 0.0
7158 H 39.626031 7.864641 43.568542 H 0.0 **** 0.0
7159 H 38.864504 7.266188 42.405003 H 0.0 **** 0.0
7160 M 39.56865 7.280501 42.921663 M 0.0 **** 0.0
7161 O 0.397372 44.791904 35.452811 O 0.0 **** 0.0
7162 H 0.129134 43.873496 35.424471 H 0.0 **** 0.0
7163 H 1.34211 44.770808 35.300319 H 0.0 **** 0.0
7164 M 0.483973 44.671636 35.429662 M 0.0 **** 0.0
7165 O 33.159876 10.019995 27.756657 O 0.0 **** 0.0
7166 H 32.902728 9.130221 27.998332 H 0.0 **** 0.0
7167 H 34.116708 9.997746 27.742312 H 0.0 **** 0.0
7168 M 33.249444 9.903244 27.785758 M 0.0 **** 0.0
7169 O 39.843365 42.952895 5.022669 O 0.0 **** 0.0
7170 H 39.759742 43.825605 4.638466 H 0.0 **** 0.0
7171 H 38.951119 42.715244 5.274956 H 0.0 **** 0.0
7172 M 39.718442 43.03419 5.005782 M 0.0 **** 0.0
7173 O 36.282889 43.224889 11.355256 O 0.0 **** 0.0
7174 H 36.963717 42.818328 10.819149 H 0.0 **** 0.0
7175 H 36.278119 44.142244 11.082007 H 0.0 **** 0.0
7176 M 36.369433 43.290277 11.251649 M 0.0 **** 0.0
7177 O 4.698877 1.784774 40.589777 O 0.0 **** 0.0
7178 H 4.283048 2.446194 41.142803 H 0.0 **** 0.0
7179 H 5.276782 1.304803 41.182974 H 0.0 **** 0.0
7180 M 4.719625 1.808001 40.736508 M 0.0 **** 0.0
7181 O 28.836111 0.567823 32.089166 O 0.0 **** 0.0
7182 H 28.350372 0.000852 32.688191 H 0.0 **** 0.0
7183 H 29.058376 0.001666 31.350049 H 0.0 **** 0.0
7184 M 28.802383 0.422768 32.071232 M 0.0 **** 0.0
7185 O 33.794468 21.276888 38.085465 O 0.0 **** 0.0
7186 H 33.057997 20.6801 37.952487 H 0.0 **** 0.0
7187 H 33.394392 22.14524 38.131644 H 0.0 **** 0.0
7188 M 33.648976 21.311652 38.074354 M 0.0 **** 0.0
7189 O 17.45602 21.466915 44.801185 O 0.0 **** 0.0
7190 H 16.67843 21.897158 44.445555 H 0.0 **** 0.0
7191 H 17.560304 20.679696 44.266732 H 0.0 **** 0.0
7192 M 17.369829 21.421217 44.687243 M 0.0 **** 0.0
7193 O 13.578932 35.444544 39.488351 O 0.0 **** 0.0
7194 H 13.757161 34.522569 39.673888 H 0.0 **** 0.0
7195 H 12.624469 35.499812 39.441731 H 0.0 **** 0.0
7196 M 13.479565 35.333595 39.506134 M 0.0 **** 0.0
7197 O 36.130835 29.868463 38.918382 O 0.0 **** 0.0
7198 H 35.734492 29.823418 39.788504 H 0.0 **** 0.0
7199 H 36.86749 30.470969 39.021114 H 0.0 **** 0.0
7200 M 36.174399 29.939825 39.042919 M 0.0 **** 0.0
7201 O 35.99205 14.285335 1.006378 O 0.0 **** 0.0
7202 H 36.426253 13.8247 0.288388 H 0.0 **** 0.0
7203 H 35.307538 13.68341 1.298539 H 0.0 **** 0.0
7204 M 35.960007 14.149314 0.951867 M 0.0 **** 0.0
7205 O 38.096126 41.277253 9.696223 O 0.0 **** 0.0
7206 H 38.975896 40.992058 9.449447 H 0.0 **** 0.0
7207 H 37.770305 40.582517 10.268422 H 0.0 **** 0.0
7208 M 38.167039 41.151809 9.737881 M 0.0 **** 0.0
7209 O 44.23889 33.05796 22.258324 O 0.0 **** 0.0
7210 H 44.219991 34.001451 22.098024 H 0.0 **** 0.0
7211 H 44.486089 32.975927 23.179406 H 0.0 **** 0.0
7212 M 44.268115 33.168237 22.355713 M 0.0 **** 0.0
7213 O 14.647241 42.086018 30.266521 O 0.0 **** 0.0
7214 H 15.42393 41.930349 29.729167 H 0.0 **** 0.0
7215 H 14.54048 41.280821 30.772968 H 0.0 **** 0.0
7216 M 14.733 41.963015 30.262565 M 0.0 **** 0.0
7217 O 15.143653 5.901157 45.489065 O 0.0 **** 0.0
7218 H 14.310762 6.032672 45.036046 H 0.0 **** 0.0
7219 H 15.379576 4.993207 45.298812 H 0.0 **** 0.0
7220 M 15.067234 5.801764 45.406718 M 0.0 **** 0.0
7221 O 18.038203 46.630187 46.091863 O 0.0 **** 0.0
7222 H 18.814083 46.288564 45.647417 H 0.0 **** 0.0
7223 H 17.446021 45.8805 46.151188 H 0.0 **** 0.0
7224 M 18.061719 46.490486 46.042563 M 0.0 **** 0.0
7225 O 10.64562 42.765084 14.668548 O 0.0 **** 0.0
7226 H 10.999891 42.122067 15.282755 H 0.0 **** 0.0
7227 H 10.44373 42.259234 13.881411 H 0.0 **** 0.0
7228 M 10.665127 42.618015 14.646411 M 0.0 **** 0.0
7229 O 6.696743 22.90575 5.633188 O 0.0 **** 0.0
7230 H 6.42124 22.82102 6.545957 H 0.0 **** 0.0
7231 H 5.901405 23.159708 5.165032 H 0.0 **** 0.0
7232 M 6.559662 22.927414 5.690104 M 0.0 **** 0.0
7233 O 28.651936 3.610435 18.173297 O 0.0 **** 0.0
7234 H 28.089625 4.384031 18.133479 H 0.0 **** 0.0
7235 H 29.139804 3.710184 18.990771 H 0.0 **** 0.0
7236 M 28.642406 3.722234 18.272847 M 0.0 **** 0.0
7237 O 39.528395 8.55413 1.638668 O 0.0 **** 0.0
7238 H 39.346521 8.622204 0.701376 H 0.0 **** 0.0
7239 H 38.755127 8.928223 2.06097 H 0.0 **** 0.0
7240 M 39.406125 8.610733 1.572743 M 0.0 **** 0.0
7241 O 11.402987 0.175554 2.857436 O 0.0 **** 0.0
7242 H 11.80211 1.040268 2.761529 H 0.0 **** 0.0
7243 H 10.617311 0.330687 3.381722 H 0.0 **** 0.0
7244 M 11.353503 0.306107 2.912274 M 0.0 **** 0.0
7245 O 4.386423 10.054234 38.189423 O 0.0 **** 0.0
7246 H 4.933699 10.837694 38.135486 H 0.0 **** 0.0
7247 H 3.737426 10.260679 38.86204 H 0.0 **** 0.0
7248 M 4.373402 10.180954 38.268622 M 0.0 **** 0.0
7249 O 15.1473 33.46829 28.273571 O 0.0 **** 0.0
7250 H 14.298188 33.436299 27.832874 H 0.0 **** 0.0
7251 H 15.371218 34.398662 28.29586 H 0.0 **** 0.0
7252 M 15.067267 33.583294 28.220009 M 0.0 **** 0.0
7253 O 1.908184 44.109715 22.859113 O 0.0 **** 0.0
7254 H 2.810556 43.821894 22.720862 H 0.0 **** 0.0
7255 H 1.423387 43.303359 23.03515 H 0.0 **** 0.0
7256 M 1.961639 43.969647 22.86395 M 0.0 **** 0.0
7257 O 3.526825 12.250549 23.790764 O 0.0 **** 0.0
7258 H 2.667001 12.581062 24.050943 H 0.0 **** 0.0
7259 H 4.051538 13.037265 23.642495 H 0.0 **** 0.0
7260 M 3.483927 12.393569 23.80509 M 0.0 **** 0.0
7261 O 9.440965 47.245844 18.62408 O 0.0 **** 0.0
7262 H 8.855064 46.488912 18.625549 H 0.0 **** 0.0
7263 H 8.856193 48.00187 18.572159 H 0.0 **** 0.0
7264 M 9.291104 47.245728 18.617621 M 0.0 **** 0.0
7265 O 4.839228 34.528537 20.912252 O 0.0 **** 0.0
7266 H 4.210371 34.835058 20.258942 H 0.0 **** 0.0
7267 H 4.299731 34.247263 21.651208 H 0.0 **** 0.0
7268 M 4.689664 34.531769 20.923216 M 0.0 **** 0.0
7269 O 19.785085 19.999773 30.209539 O 0.0 **** 0.0
7270 H 18.91942 19.591546 30.195242 H 0.0 **** 0.0
7271 H 20.36814 19.339198 29.835485 H 0.0 **** 0.0
7272 M 19.748907 19.862953 30.159825 M 0.0 **** 0.0
7273 O 12.336541 24.965518 14.100371 O 0.0 **** 0.0
7274 H 11.590149 25.411339 14.500834 H 0.0 **** 0.0
7275 H 13.084846 25.530726 14.292223 H 0.0 **** 0.0
7276 M 12.336786 25.094943 14.176195 M 0.0 **** 0.0
7277 O 16.357762 21.309015 46.793649 O 0.0 **** 0.0
7278 H 16.84428 20.765351 47.413292 H 0.0 **** 0.0
7279 H 15.659334 21.702609 47.316632 H 0.0 **** 0.0
7280 M 16.330635 21.289804 46.939919 M 0.0 **** 0.0
7281 O 47.272441 19.874209 9.862483 O 0.0 **** 0.0
7282 H 48.000093 20.23291 10.370503 H 0.0 **** 0.0
7283 H 47.243484 18.948753 10.105218 H 0.0 **** 0.0
7284 M 47.361883 19.801657 9.958589 M 0.0 **** 0.0
7285 O 35.636935 16.46172 41.274498 O 0.0 **** 0.0
7286 H 36.330542 15.809456 41.176068 H 0.0 **** 0.0
7287 H 35.094362 16.12905 41.989463 H 0.0 **** 0.0
7288 M 35.656269 16.335636 41.353422 M 0.0 **** 0.0
7289 O 34.503262 18.231025 31.568314 O 0.0 **** 0.0
7290 H 35.418609 18.399947 31.345081 H 0.0 **** 0.0
7291 H 34.490682 18.203608 32.525037 H 0.0 **** 0.0
7292 M 34.618827 18.249139 31.66221 M 0.0 **** 0.0
7293 O 14.226966 4.434922 3.568056 O 0.0 **** 0.0
7294 H 14.808101 3.684522 3.692198 H 0.0 **** 0.0
7295 H 14.812942 5.157678 3.343369 H 0.0 **** 0.0
7296 M 14.376371 4.431384 3.555185 M 0.0 **** 0.0
7297 O 24.674918 11.904815 28.894365 O 0.0 **** 0.0
7298 H 24.485844 12.807174 29.151713 H 0.0 **** 0.0
7299 H 25.557154 11.940509 28.524752 H 0.0 **** 0.0
7300 M 24.763651 12.024898 28.879994 M 0.0 **** 0.0
7301 O 27.709398 0.910256 20.304082 O 0.0 **** 0.0
7302 H 26.988904 1.25322 20.832754 H 0.0 **** 0.0
7303 H 27.305469 0.68281 19.466623 H 0.0 **** 0.0
7304 M 27.565458 0.925044 20.264554 M 0.0 **** 0.0
7305 O 28.505671 32.724265 16.606536 O 0.0 **** 0.0
7306 H 27.569827 32.526294 16.641641 H 0.0 **** 0.0
7307 H 28.933375 31.868554 16.639032 H 0.0 **** 0.0
7308 M 28.440622 32.589381 16.61519 M 0.0 **** 0.0
7309 O 20.810164 19.814439 17.746716 O 0.0 **** 0.0
7310 H 21.395499 20.571349 17.773181 H 0.0 **** 0.0
7311 H 21.34951 19.083321 18.04805 H 0.0 **** 0.0
7312 M 20.954137 19.817741 17.788679 M 0.0 **** 0.0
7313 O 35.082272 45.614571 9.968884 O 0.0 **** 0.0
7314 H 35.952034 45.708613 9.580428 H 0.0 **** 0.0
7315 H 34.663536 46.463756 9.828265 H 0.0 **** 0.0
7316 M 35.140009 45.735316 9.901156 M 0.0 **** 0.0
7317 O 41.477718 23.823066 44.961151 O 0.0 **** 0.0
7318 H 41.534609 22.908257 45.237043 H 0.0 **** 0.0
7319 H 40.572882 23.929359 44.667548 H 0.0 **** 0.0
7320 M 41.36917 23.719566 44.958884 M 0.0 **** 0.0
7321 O 47.229652 31.762495 46.829189 O 0.0 **** 0.0
7322 H 46.500494 31.150157 46.927165 H 0.0 **** 0.0
7323 H 48.009382 31.238542 47.012827 H 0.0 **** 0.0
7324 M 47.236126 31.617035 46.865239 M 0.0 **** 0.0
7325 O 46.247833 9.386169 19.422649 O 0.0 **** 0.0
7326 H 46.72051 9.107316 20.206898 H 0.0 **** 0.0
7327 H 46.151401 8.587535 18.903888 H 0.0 **** 0.0
7328 M 46.295997 9.248237 19.456635 M 0.0 **** 0.0
7329 O 19.203174 22.105176 17.094789 O 0.0 **** 0.0
7330 H 19.678372 22.93547 17.126854 H 0.0 **** 0.0
7331 H 19.68291 21.578634 16.455386 H 0.0 **** 0.0
7332 M 19.325418 22.14406 17.017042 M 0.0 **** 0.0
7333 O 22.920933 20.866005 21.558893 O 0.0 **** 0.0
7334 H 22.754884 21.436733 22.309177 H 0.0 **** 0.0
7335 H 22.068944 20.478081 21.359247 H 0.0 **** 0.0
7336 M 22.790611 20.889406 21.629382 M 0.0 **** 0.0
7337 O 22.133854 33.357131 21.769146 O 0.0 **** 0.0
7338 H 21.502441 33.4898 22.476214 H 0.0 **** 0.0
7339 H 22.385648 34.241489 21.503176 H 0.0 **** 0.0
7340 M 22.085258 33.487323 21.825612 M 0.0 **** 0.0
7341 O 40.732448 4.567878 44.068457 O 0.0 **** 0.0
7342 H 41.458902 5.061657 44.448819 H 0.0 **** 0.0
7343 H 40.359223 5.156878 43.412706 H 0.0 **** 0.0
7344 M 40.777666 4.706487 44.033204 M 0.0 **** 0.0
7345 O 12.609708 43.969649 44.432926 O 0.0 **** 0.0
7346 H 12.151229 43.578748 43.689137 H 0.0 **** 0.0
7347 H 12.425934 44.906414 44.362734 H 0.0 **** 0.0
7348 M 12.527491 44.039526 44.328726 M 0.0 **** 0.0
7349 O 39.526747 20.581371 21.854904 O 0.0 **** 0.0
7350 H 39.190824 19.685058 21.852307 H 0.0 **** 0.0
7351 H 38.743321 21.131248 21.86532 H 0.0 **** 0.0
7352 M 39.383456 20.537023 21.855905 M 0.0 **** 0.0
7353 O 11.455635 10.394952 18.264595 O 0.0 **** 0.0
7354 H 11.440618 11.020423 18.989019 H 0.0 **** 0.0
7355 H 12.302472 9.955897 18.344128 H 0.0 **** 0.0
7356 M 11.562118 10.418816 18.367512 M 0.0 **** 0.0
7357 O 3.612345 39.097477 37.08574 O 0.0 **** 0.0
7358 H 4.140297 38.370061 36.756557 H 0.0 **** 0.0
7359 H 4.104854 39.431445 37.835493 H 0.0 **** 0.0
7360 M 3.742977 39.047111 37.139578 M 0.0 **** 0.0
7361 O 19.871024 33.783717 27.67728 O 0.0 **** 0.0
7362 H 18.990209 34.150918 27.751829 H 0.0 **** 0.0
7363 H 19.735642 32.836246 27.663167 H 0.0 **** 0.0
7364 M 19.740938 33.709435 27.685016 M 0.0 **** 0.0
7365 O 2.838812 14.518234 46.061626 O 0.0 **** 0.0
7366 H 3.759441 14.267459 46.137664 H 0.0 **** 0.0
7367 H 2.36661 13.686874 46.015857 H 0.0 **** 0.0
7368 M 2.896216 14.379707 46.065501 M 0.0 **** 0.0
7369 O 30.560813 45.412674 24.466977 O 0.0 **** 0.0
7370 H 30.61993 46.173362 23.888974 H 0.0 **** 0.0
7371 H 29.753142 45.549658 24.962084 H 0.0 **** 0.0
7372 M 30.464989 45.527587 24.456365 M 0.0 **** 0.0
7373 O 3.846709 22.225355 2.112015 O 0.0 **** 0.0
7374 H 3.650725 22.52729 1.22508 H 0.0 **** 0.0
7375 H 4.796677 22.108297 2.121256 H 0.0 **** 0.0
7376 M 3.943228 22.249022 1.999659 M 0.0 **** 0.0
7377 O 44.451015 5.024383 16.139576 O 0.0 **** 0.0
7378 H 45.138094 4.458784 16.492065 H 0.0 **** 0.0
7379 H 44.332573 4.724893 15.238185 H 0.0 **** 0.0
7380 M 44.523808 4.913641 16.06931 M 0.0 **** 0.0
7381 O 33.481507 24.056571 29.676566 O 0.0 **** 0.0
7382 H 34.030191 24.562587 30.275835 H 0.0 **** 0.0
7383 H 33.576901 24.498402 28.832816 H 0.0 **** 0.0
7384 M 33.563957 24.177907 29.645269 M 0.0 **** 0.0
7385 O 7.302422 2.842894 11.252378 O 0.0 **** 0.0
7386 H 6.403488 2.51595 11.216958 H 0.0 **** 0.0
7387 H 7.834377 2.064821 11.419273 H 0.0 **** 0.0
7388 M 7.255444 2.701438 11.269208 M 0.0 **** 0.0
7389 O 46.595063 29.581488 21.445103 O 0.0 **** 0.0
7390 H 47.151144 29.908961 22.152042 H 0.0 **** 0.0
7391 H 47.198116 29.424437 20.718542 H 0.0 **** 0.0
7392 M 46.743447 29.603304 21.442591 M 0.0 **** 0.0
7393 O 12.243604 37.741629 11.251511 O 0.0 **** 0.0
7394 H 12.369955 38.666962 11.461324 H 0.0 **** 0.0
7395 H 11.81933 37.37537 12.027446 H 0.0 **** 0.0
7396 M 12.205466 37.813197 11.377699 M 0.0 **** 0.0
7397 O 17.161949 36.864443 30.625511 O 0.0 **** 0.0
7398 H 16.2593 36.55727 30.709754 H 0.0 **** 0.0
7399 H 17.07995 37.787463 30.385638 H 0.0 **** 0.0
7400 M 17.035902 36.943279 30.605588 M 0.0 **** 0.0
7401 O 26.869291 29.709133 12.668099 O 0.0 **** 0.0
7402 H 26.114925 29.434215 12.146964 H 0.0 **** 0.0
7403 H 27.009215 28.990941 13.285229 H 0.0 **** 0.0
7404 M 26.790634 29.582003 12.680387 M 0.0 **** 0.0
7405 O 16.110557 7.728801 0.400938 O 0.0 **** 0.0
7406 H 16.007635 7.399905 1.293946 H 0.0 **** 0.0
7407 H 15.253472 7.595952 -0.004013 H 0.0 **** 0.0
7408 M 15.987664 7.669691 0.463416 M 0.0 **** 0.0
7409 O 40.391834 28.295734 6.824902 O 0.0 **** 0.0
7410 H 39.927202 27.706844 7.419507 H 0.0 **** 0.0
7411 H 40.74449 27.721331 6.145252 H 0.0 **** 0.0
7412 M 40.3775 28.146818 6.814015 M 0.0 **** 0.0
7413 O 13.047366 15.315747 25.595532 O 0.0 **** 0.0
7414 H 12.560285 16.120591 25.772188 H 0.0 **** 0.0
7415 H 12.371823 14.654777 25.443916 H 0.0 **** 0.0
7416 M 12.898536 15.334165 25.598737 M 0.0 **** 0.0
7417 O 43.962861 42.561568 38.788508 O 0.0 **** 0.0
7418 H 43.570064 43.391607 39.058645 H 0.0 **** 0.0
7419 H 43.22237 41.960241 38.70908 H 0.0 **** 0.0
7420 M 43.817786 42.590846 38.812921 M 0.0 **** 0.0
7421 O 25.960993 18.818216 41.846123 O 0.0 **** 0.0
7422 H 25.297159 19.506445 41.802601 H 0.0 **** 0.0
7423 H 26.793608 19.289452 41.876423 H 0.0 **** 0.0
7424 M 25.982599 18.966642 41.844431 M 0.0 **** 0.0
7425 O 4.769984 21.818171 41.106249 O 0.0 **** 0.0
7426 H 5.327548 22.580972 41.259503 H 0.0 **** 0.0
7427 H 3.896036 22.183503 40.968496 H 0.0 **** 0.0
7428 M 4.729483 21.962586 41.108233 M 0.0 **** 0.0
7429 O 44.539272 1.523981 12.324119 O 0.0 **** 0.0
7430 H 45.325172 0.977887 12.304864 H 0.0 **** 0.0
7431 H 43.832149 0.936388 12.057772 H 0.0 **** 0.0
7432 M 44.549357 1.378855 12.287559 M 0.0 **** 0.0
7433 O 32.322371 42.656429 6.478517 O 0.0 **** 0.0
7434 H 32.487308 43.55436 6.190863 H 0.0 **** 0.0
7435 H 33.159048 42.207785 6.356377 H 0.0 **** 0.0
7436 M 32.45059 42.713943 6.426059 M 0.0 **** 0.0
7437 O 35.067435 28.985702 14.355773 O 0.0 **** 0.0
7438 H 34.651452 29.241559 15.179013 H 0.0 **** 0.0
7439 H 34.742317 29.618802 13.715686 H 0.0 **** 0.0
7440 M 34.972565 29.0995 14.379219 M 0.0 **** 0.0
7441 O 13.931735 16.626671 11.366935 O 0.0 **** 0.0
7442 H 13.957385 15.774133 10.932482 H 0.0 **** 0.0
7443 H 14.725269 16.647419 11.901821 H 0.0 **** 0.0
7444 M 14.036601 16.520191 11.379792 M 0.0 **** 0.0
7445 O 42.912456 43.702109 12.325295 O 0.0 **** 0.0
7446 H 43.810306 43.544916 12.033089 H 0.0 **** 0.0
7447 H 42.438924 42.905755 12.084846 H 0.0 **** 0.0
7448 M 42.966774 43.580043 12.257109 M 0.0 **** 0.0
7449 O 8.634451 33.564692 40.637688 O 0.0 **** 0.0
7450 H 8.320231 33.572435 41.541809 H 0.0 **** 0.0
7451 H 8.010815 34.113498 40.162169 H 0.0 **** 0.0
7452 M 8.514394 33.635937 40.692554 M 0.0 **** 0.0
7453 O 1.747856 32.96621 4.208047 O 0.0 **** 0.0
7454 H 1.367136 33.073065 3.336346 H 0.0 **** 0.0
7455 H 1.462653 32.096943 4.489583 H 0.0 **** 0.0
7456 M 1.662609 32.868612 4.132499 M 0.0 **** 0.0
7457 O 9.88654 46.682254 43.776347 O 0.0 **** 0.0
7458 H 9.208337 46.040537 43.565471 H 0.0 **** 0.0
7459 H 10.681085 46.161697 43.894449 H 0.0 **** 0.0
7460 M 9.901433 46.533468 43.764471 M 0.0 **** 0.0
7461 O 7.551374 45.899842 15.481065 O 0.0 **** 0.0
7462 H 7.290118 45.939441 14.561062 H 0.0 **** 0.0
7463 H 7.117986 45.116612 15.820116 H 0.0 **** 0.0
7464 M 7.462451 45.804648 15.406696 M 0.0 **** 0.0
7465 O 13.376448 4.11669 37.814909 O 0.0 **** 0.0
7466 H 13.169876 3.376045 38.384997 H 0.0 **** 0.0
7467 H 12.701413 4.093075 37.136677 H 0.0 **** 0.0
7468 M 13.263591 4.018855 37.801065 M 0.0 **** 0.0
7469 O 0.827804 18.546958 10.51945 O 0.0 **** 0.0
7470 H 0.743669 19.500266 10.50065 H 0.0 **** 0.0
7471 H -0.001205 18.225828 10.164698 H 0.0 **** 0.0
7472 M 0.71091 18.627884 10.471631 M 0.0 **** 0.0
7473 O 26.685747 47.860016 39.412834 O 0.0 **** 0.0
7474 H 26.798102 46.912565 39.335748 H 0.0 **** 0.0
7475 H 25.748947 48.002407 39.277337 H 0.0 **** 0.0
7476 M 26.580208 47.756958 39.38562 M 0.0 **** 0.0
7477 O 43.757126 42.452006 10.124709 O 0.0 **** 0.0
7478 H 44.43944 41.781161 10.099322 H 0.0 **** 0.0
7479 H 42.937297 41.959235 10.160551 H 0.0 **** 0.0
7480 M 43.739523 42.303048 10.126047 M 0.0 **** 0.0
7481 O 28.914604 6.252961 45.113182 O 0.0 **** 0.0
7482 H 28.458165 6.380585 44.281555 H 0.0 **** 0.0
7483 H 28.611635 5.400129 45.424816 H 0.0 **** 0.0
7484 M 28.81739 6.160125 45.046617 M 0.0 **** 0.0
7485 O 43.574622 41.128452 20.774517 O 0.0 **** 0.0
7486 H 42.84023 40.759311 21.26506 H 0.0 **** 0.0
7487 H 44.217789 41.361093 21.444176 H 0.0 **** 0.0
7488 M 43.562944 41.110978 20.923038 M 0.0 **** 0.0
7489 O 42.144122 16.528724 16.224817 O 0.0 **** 0.0
7490 H 42.894551 17.110324 16.346579 H 0.0 **** 0.0
7491 H 41.387219 17.114355 16.205766 H 0.0 **** 0.0
7492 M 42.143293 16.678144 16.237965 M 0.0 **** 0.0
7493 O 10.329197 28.257203 12.102843 O 0.0 **** 0.0
7494 H 10.513828 28.595798 12.978911 H 0.0 **** 0.0
7495 H 10.530522 28.986409 11.516366 H 0.0 **** 0.0
7496 M 10.378604 28.393895 12.139914 M 0.0 **** 0.0
7497 O 26.541546 5.858947 27.955273 O 0.0 **** 0.0
7498 H 27.367002 5.739941 27.485499 H 0.0 **** 0.0
7499 H 25.875564 5.511283 27.362124 H 0.0 **** 0.0
7500 M 26.561961 5.799208 27.819206 M 0.0 **** 0.0
7501 O 34.572324 23.302619 23.023715 O 0.0 **** 0.0
7502 H 34.205669 22.601805 23.562837 H 0.0 **** 0.0
7503 H 35.023216 22.847434 22.312567 H 0.0 **** 0.0
7504 M 34.583108 23.154636 23.001694 M 0.0 **** 0.0
7505 O 25.248755 20.017597 3.758265 O 0.0 **** 0.0
7506 H 24.607237 20.639488 4.10168 H 0.0 **** 0.0
7507 H 24.750131 19.213291 3.614405 H 0.0 **** 0.0
7508 M 25.102803 19.994245 3.783811 M 0.0 **** 0.0
7509 O 28.03313 24.56131 31.908477 O 0.0 **** 0.0
7510 H 27.12014 24.47088 31.63553 H 0.0 **** 0.0
7511 H 28.107324 24.007255 32.685489 H 0.0 **** 0.0
7512 M 27.925754 24.478807 31.973004 M 0.0 **** 0.0
7513 O 16.645028 46.212471 38.453422 O 0.0 **** 0.0
7514 H 17.600907 46.162278 38.455423 H 0.0 **** 0.0
7515 H 16.444429 46.989734 38.974816 H 0.0 **** 0.0
7516 M 16.741713 46.305545 38.520423 M 0.0 **** 0.0
7517 O 26.854532 35.624273 2.931871 O 0.0 **** 0.0
7518 H 26.837299 36.580458 2.891358 H 0.0 **** 0.0
7519 H 27.292945 35.357693 2.123813 H 0.0 **** 0.0
7520 M 26.908449 35.712551 2.823243 M 0.0 **** 0.0
7521 O 23.37604 5.624822 22.186284 O 0.0 **** 0.0
7522 H 24.315246 5.451808 22.250994 H 0.0 **** 0.0
7523 H 22.986132 4.769102 22.007557 H 0.0 **** 0.0
7524 M 23.446357 5.493131 22.171689 M 0.0 **** 0.0
7525 O 37.327254 18.327433 17.759458 O 0.0 **** 0.0
7526 H 36.56366 18.751636 18.150872 H 0.0 **** 0.0
7527 H 37.095143 18.21909 16.83717 H 0.0 **** 0.0
7528 M 37.199791 18.367867 17.691499 M 0.0 **** 0.0
7529 O 4.816577 12.36372 29.066069 O 0.0 **** 0.0
7530 H 5.019564 11.571091 29.562823 H 0.0 **** 0.0
7531 H 5.665137 12.784837 28.928829 H 0.0 **** 0.0
7532 M 4.951188 12.316162 29.112091 M 0.0 **** 0.0
7533 O 40.869623 42.651893 44.905009 O 0.0 **** 0.0
7534 H 40.82864 41.704666 44.773435 H 0.0 **** 0.0
7535 H 41.333699 42.981241 44.135339 H 0.0 **** 0.0
7536 M 40.923784 42.572796 44.789639 M 0.0 **** 0.0
7537 O 8.75678 30.869064 14.483008 O 0.0 **** 0.0
7538 H 8.603953 31.662992 13.970611 H 0.0 **** 0.0
7539 H 7.905789 30.431502 14.507168 H 0.0 **** 0.0
7540 M 8.628279 30.914683 14.420507 M 0.0 **** 0.0
7541 O 9.575284 33.481857 37.443386 O 0.0 **** 0.0
7542 H 10.229762 33.006414 37.95509 H 0.0 **** 0.0
7543 H 8.741015 33.26388 37.858972 H 0.0 **** 0.0
7544 M 9.552268 33.39309 37.562091 M 0.0 **** 0.0
7545 O 26.015846 3.165965 32.417918 O 0.0 **** 0.0
7546 H 26.924055 3.460739 32.484945 H 0.0 **** 0.0
7547 H 26.053353 2.401937 31.84252 H 0.0 **** 0.0
7548 M 26.136909 3.105894 32.35284 M 0.0 **** 0.0
7549 O 39.411312 9.016639 8.665918 O 0.0 **** 0.0
7550 H 40.30053 8.66327 8.640422 H 0.0 **** 0.0
7551 H 39.399452 9.686222 7.981998 H 0.0 **** 0.0
7552 M 39.523625 9.057118 8.575104 M 0.0 **** 0.0
7553 O 1.738533 41.222654 0.433756 O 0.0 **** 0.0
7554 H 2.0943 41.765189 1.137542 H 0.0 **** 0.0
7555 H 0.789536 41.320394 0.511728 H 0.0 **** 0.0
7556 M 1.662592 41.304617 0.533831 M 0.0 **** 0.0
7557 O 16.063626 11.549541 32.323738 O 0.0 **** 0.0
7558 H 16.802747 10.941575 32.306226 H 0.0 **** 0.0
7559 H 16.444442 12.38233 32.602431 H 0.0 **** 0.0
7560 M 16.206992 11.578321 32.357173 M 0.0 **** 0.0
7561 O 21.702088 40.487027 25.313525 O 0.0 **** 0.0
7562 H 20.810889 40.759505 25.532039 H 0.0 **** 0.0
7563 H 21.700145 39.537934 25.437806 H 0.0 **** 0.0
7564 M 21.587754 40.400412 25.357407 M 0.0 **** 0.0
7565 O 44.475913 13.978714 26.854602 O 0.0 **** 0.0
7566 H 44.139413 13.27093 27.404182 H 0.0 **** 0.0
7567 H 43.693038 14.426637 26.534134 H 0.0 **** 0.0
7568 M 44.332619 13.945449 26.883931 M 0.0 **** 0.0
7569 O 8.980532 16.67035 19.394185 O 0.0 **** 0.0
7570 H 8.165654 16.266433 19.692602 H 0.0 **** 0.0
7571 H 9.08243 16.367007 18.492061 H 0.0 **** 0.0
7572 M 8.889262 16.579812 19.316903 M 0.0 **** 0.0
7573 O 14.033033 41.334802 22.953232 O 0.0 **** 0.0
7574 H 13.523654 42.024077 22.527013 H 0.0 **** 0.0
7575 H 14.925013 41.460534 22.629517 H 0.0 **** 0.0
7576 M 14.08201 41.439133 22.857231 M 0.0 **** 0.0
7577 O 14.881145 33.104952 10.843156 O 0.0 **** 0.0
7578 H 15.634598 33.666187 11.026332 H 0.0 **** 0.0
7579 H 15.213498 32.449712 10.229616 H 0.0 **** 0.0
7580 M 15.020142 33.092918 10.788064 M 0.0 **** 0.0
7581 O 45.113493 -7.5e-05 40.165567 O 0.0 **** 0.0
7582 H 45.873311 0.022178 40.747297 H 0.0 **** 0.0
7583 H 44.370825 0.207154 40.732779 H 0.0 **** 0.0
7584 M 45.115688 0.029302 40.312646 M 0.0 **** 0.0
7585 O 8.252474 8.821837 9.987418 O 0.0 **** 0.0
7586 H 9.190753 8.948524 9.84666 H 0.0 **** 0.0
7587 H 8.13265 8.942604 10.929377 H 0.0 **** 0.0
7588 M 8.357247 8.853514 10.089982 M 0.0 **** 0.0
7589 O 20.266067 20.563523 46.223274 O 0.0 **** 0.0
7590 H 20.92557 19.869885 46.21106 H 0.0 **** 0.0
7591 H 19.429235 20.098904 46.231664 H 0.0 **** 0.0
7592 M 20.243366 20.415252 46.222785 M 0.0 **** 0.0
7593 O 11.66502 22.163333 27.938 O 0.0 **** 0.0
7594 H 12.110052 21.38943 27.592675 H 0.0 **** 0.0
7595 H 12.256484 22.889118 27.738917 H 0.0 **** 0.0
7596 M 11.797704 22.157173 27.868309 M 0.0 **** 0.0
7597 O 38.08769 43.906737 41.385404 O 0.0 **** 0.0
7598 H 37.326251 44.486308 41.362236 H 0.0 **** 0.0
7599 H 37.717767 43.023967 41.375239 H 0.0 **** 0.0
7600 M 37.942862 43.867924 41.381137 M 0.0 **** 0.0
7601 O 20.496352 28.760723 16.913829 O 0.0 **** 0.0
7602 H 20.257732 29.6875 16.933172 H 0.0 **** 0.0
7603 H 21.453537 28.759405 16.909009 H 0.0 **** 0.0
7604 M 20.588337 28.879193 16.915688 M 0.0 **** 0.0
7605 O 9.711034 3.993866 29.552267 O 0.0 **** 0.0
7606 H 10.597854 3.756076 29.281648 H 0.0 **** 0.0
7607 H 9.781605 4.907209 29.82985 H 0.0 **** 0.0
7608 M 9.833592 4.080345 29.553158 M 0.0 **** 0.0
7609 O 10.281383 39.402605 31.074604 O 0.0 **** 0.0
7610 H 9.365453 39.674856 31.131002 H 0.0 **** 0.0
7611 H 10.707853 39.841078 31.810874 H 0.0 **** 0.0
7612 M 10.218726 39.493587 31.176076 M 0.0 **** 0.0
7613 O 43.920541 8.690505 2.688833 O 0.0 **** 0.0
7614 H 44.330182 8.967447 1.869244 H 0.0 **** 0.0
7615 H 43.02078 8.472436 2.445719 H 0.0 **** 0.0
7616 M 43.857799 8.698042 2.552794 M 0.0 **** 0.0
7617 O 34.281876 29.68825 1.306431 O 0.0 **** 0.0
7618 H 34.328193 29.944482 0.385329 H 0.0 **** 0.0
7619 H 33.898133 30.446228 1.747383 H 0.0 **** 0.0
7620 M 34.238681 29.818082 1.244966 M 0.0 **** 0.0
7621 O 0.565412 38.776269 18.714262 O 0.0 **** 0.0
7622 H 1.252692 38.927726 18.065466 H 0.0 **** 0.0
7623 H 1.024431 38.774738 19.554219 H 0.0 **** 0.0
7624 M 0.712153 38.795461 18.738733 M 0.0 **** 0.0
7625 O 42.099627 46.797484 24.032885 O 0.0 **** 0.0
7626 H 41.375216 46.566601 24.614391 H 0.0 **** 0.0
7627 H 41.713642 46.79737 23.15696 H 0.0 **** 0.0
7628 M 41.957482 46.767913 23.995196 M 0.0 **** 0.0
7629 O 26.652664 15.238246 7.161464 O 0.0 **** 0.0
7630 H 25.859035 15.75603 7.296672 H 0.0 **** 0.0
7631 H 26.891871 14.932736 8.036491 H 0.0 **** 0.0
7632 M 26.581691 15.26542 7.290787 M 0.0 **** 0.0
7633 O 15.798221 32.813485 30.834027 O 0.0 **** 0.0
7634 H 15.152026 33.496562 30.654955 H 0.0 **** 0.0
7635 H 15.708872 32.638241 31.770796 H 0.0 **** 0.0
7636 M 15.704062 32.878494 30.931022 M 0.0 **** 0.0
7637 O 21.523371 28.307439 35.155927 O 0.0 **** 0.0
7638 H 21.758061 29.232089 35.234497 H 0.0 **** 0.0
7639 H 22.125997 27.855838 35.746796 H 0.0 **** 0.0
7640 M 21.630558 28.367995 35.241624 M 0.0 **** 0.0
7641 O 26.141707 14.714853 31.564076 O 0.0 **** 0.0
7642 H 25.967899 15.649205 31.678115 H 0.0 **** 0.0
7643 H 25.419179 14.27939 32.016352 H 0.0 **** 0.0
7644 M 26.026965 14.778717 31.636571 M 0.0 **** 0.0
7645 O 10.901312 6.066954 22.931414 O 0.0 **** 0.0
7646 H 11.412131 5.621227 22.255677 H 0.0 **** 0.0
7647 H 10.964682 5.495156 23.696437 H 0.0 **** 0.0
7648 M 10.974815 5.936698 22.942844 M 0.0 **** 0.0
7649 O 15.925778 0.839845 46.542108 O 0.0 **** 0.0
7650 H 15.452283 1.565287 46.949252 H 0.0 **** 0.0
7651 H 15.358303 0.079994 46.671827 H 0.0 **** 0.0
7652 M 15.79252 0.83544 46.610833 M 0.0 **** 0.0
7653 O 0.18661 45.558917 32.519956 O 0.0 **** 0.0
7654 H 0.967441 46.097667 32.392363 H 0.0 **** 0.0
7655 H 0.000743 45.62376 33.456693 H 0.0 **** 0.0
7656 M 0.262773 45.636185 32.623536 M 0.0 **** 0.0
7657 O 35.995017 39.337069 15.3993 O 0.0 **** 0.0
7658 H 35.206274 38.953624 15.782813 H 0.0 **** 0.0
7659 H 36.648612 38.639379 15.446951 H 0.0 **** 0.0
7660 M 35.977716 39.19867 15.454494 M 0.0 **** 0.0
7661 O 38.844562 0.348926 40.733786 O 0.0 **** 0.0
7662 H 38.268073 -0.00271 41.412196 H 0.0 **** 0.0
7663 H 38.498293 -0.008019 39.915913 H 0.0 **** 0.0
7664 M 38.726438 0.258218 40.715933 M 0.0 **** 0.0
7665 O 15.374504 5.224518 17.86347 O 0.0 **** 0.0
7666 H 15.865314 4.402835 17.876545 H 0.0 **** 0.0
7667 H 14.497018 4.984685 18.161343 H 0.0 **** 0.0
7668 M 15.325005 5.088631 17.903275 M 0.0 **** 0.0
7669 O 18.644555 40.251461 15.067877 O 0.0 **** 0.0
7670 H 18.00199 40.207785 15.775995 H 0.0 **** 0.0
7671 H 19.407203 40.675179 15.461653 H 0.0 **** 0.0
7672 M 18.659927 40.300111 15.208933 M 0.0 **** 0.0
7673 O 33.356013 16.141089 43.326876 O 0.0 **** 0.0
7674 H 34.089438 16.200264 43.939098 H 0.0 **** 0.0
7675 H 32.644006 16.612809 43.759026 H 0.0 **** 0.0
7676 M 33.358755 16.20905 43.460569 M 0.0 **** 0.0
7677 O 29.863549 6.312327 4.807438 O 0.0 **** 0.0
7678 H 30.810434 6.193662 4.732908 H 0.0 **** 0.0
7679 H 29.761172 7.161981 5.236199 H 0.0 **** 0.0
7680 M 29.971656 6.405902 4.852784 M 0.0 **** 0.0
7681 O 20.904521 24.238882 41.898269 O 0.0 **** 0.0
7682 H 21.339496 23.654361 41.277495 H 0.0 **** 0.0
7683 H 21.224527 25.111804 41.670605 H 0.0 **** 0.0
7684 M 21.001168 24.275801 41.789659 M 0.0 **** 0.0
7685 O 34.631279 8.122406 33.312357 O 0.0 **** 0.0
7686 H 34.315306 7.218864 33.31118 H 0.0 **** 0.0
7687 H 35.584035 8.043403 33.35972 H 0.0 **** 0.0
7688 M 34.712795 7.996628 33.31827 M 0.0 **** 0.0
7689 O 35.580628 35.582817 16.964684 O 0.0 **** 0.0
7690 H 34.625238 35.524127 16.961063 H 0.0 **** 0.0
7691 H 35.763368 36.522401 16.960672 H 0.0 **** 0.0
7692 M 35.481719 35.695582 16.963707 M 0.0 **** 0.0
7693 O 20.020397 37.323977 32.929576 O 0.0 **** 0.0
7694 H 20.97114 37.375733 32.831402 H 0.0 **** 0.0
7695 H 19.714384 38.21807 32.777323 H 0.0 **** 0.0
7696 M 20.102931 37.445058 32.897518 M 0.0 **** 0.0
7697 O 9.057937 35.878988 7.110972 O 0.0 **** 0.0
7698 H 9.345659 35.246645 6.452499 H 0.0 **** 0.0
7699 H 8.803349 35.34375 7.862592 H 0.0 **** 0.0
7700 M 9.062179 35.729523 7.122896 M 0.0 **** 0.0
7701 O 22.503082 24.607424 39.170246 O 0.0 **** 0.0
7702 H 21.660435 24.984512 39.423188 H 0.0 **** 0.0
7703 H 22.378095 23.662198 39.254835 H 0.0 **** 0.0
7704 M 22.379213 24.534695 39.213454 M 0.0 **** 0.0
7705 O 19.79223 37.201996 40.716338 O 0.0 **** 0.0
7706 H 19.94015 38.084843 40.377324 H 0.0 **** 0.0
7707 H 20.664568 36.809669 40.752884 H 0.0 **** 0.0
7708 M 19.922836 37.264789 40.677618 M 0.0 **** 0.0
7709 O 3.739506 12.378959 31.157712 O 0.0 **** 0.0
7710 H 2.977453 12.20443 31.710018 H 0.0 **** 0.0
7711 H 3.514157 13.179511 30.683832 H 0.0 **** 0.0
7712 M 3.613106 12.459098 31.167751 M 0.0 **** 0.0
7713 O 22.895343 27.288524 19.677442 O 0.0 **** 0.0
7714 H 22.824463 28.008415 20.304308 H 0.0 **** 0.0
7715 H 23.534524 27.593211 19.033359 H 0.0 **** 0.0
7716 M 22.968093 27.419683 19.675238 M 0.0 **** 0.0
7717 O 24.725419 1.894616 28.954745 O 0.0 **** 0.0
7718 H 25.344085 1.166742 29.01541 H 0.0 **** 0.0
7719 H 25.274957 2.678264 28.966261 H 0.0 **** 0.0
7720 M 24.874964 1.901756 28.963985 M 0.0 **** 0.0
7721 O 23.690306 11.65434 45.326163 O 0.0 **** 0.0
7722 H 23.87307 12.593403 45.294759 H 0.0 **** 0.0
7723 H 22.734987 11.595297 45.315797 H 0.0 **** 0.0
7724 M 23.59141 11.766994 45.320816 M 0.0 **** 0.0
7725 O 30.79195 11.022704 29.815541 O 0.0 **** 0.0
7726 H 30.139463 11.074308 29.117095 H 0.0 **** 0.0
7727 H 31.354426 10.289905 29.564833 H 0.0 **** 0.0
7728 M 30.780428 10.935503 29.694037 M 0.0 **** 0.0
7729 O 12.339687 39.436596 17.56998 O 0.0 **** 0.0
7730 H 12.973718 38.736336 17.415484 H 0.0 **** 0.0
7731 H 11.489977 39.035662 17.387025 H 0.0 **** 0.0
7732 M 12.312077 39.295629 17.526782 M 0.0 **** 0.0
7733 O 42.564468 28.81255 36.055672 O 0.0 **** 0.0
7734 H 42.726902 27.871266 35.993795 H 0.0 **** 0.0
7735 H 43.239124 29.133692 36.653949 H 0.0 **** 0.0
7736 M 42.671626 28.733164 36.124338 M 0.0 **** 0.0
7737 O 11.995865 11.122337 31.205898 O 0.0 **** 0.0
7738 H 12.85569 10.900854 30.848304 H 0.0 **** 0.0
7739 H 12.012478 10.780645 32.099877 H 0.0 **** 0.0
7740 M 12.10806 11.050244 31.274562 M 0.0 **** 0.0
7741 O 37.744191 38.901144 29.475402 O 0.0 **** 0.0
7742 H 37.57572 39.686425 29.996153 H 0.0 **** 0.0
7743 H 38.596219 38.589206 29.780315 H 0.0 **** 0.0
7744 M 37.831695 38.961738 29.581097 M 0.0 **** 0.0
7745 O 44.603644 7.038391 43.588653 O 0.0 **** 0.0
7746 H 43.911012 6.406027 43.397331 H 0.0 **** 0.0
7747 H 44.141307 7.863466 43.736047 H 0.0 **** 0.0
7748 M 44.455793 7.06306 43.58303 M 0.0 **** 0.0
7749 O 21.736744 28.635454 41.280321 O 0.0 **** 0.0
7750 H 21.946356 27.813053 40.83766 H 0.0 **** 0.0
7751 H 22.140654 29.310956 40.735544 H 0.0 **** 0.0
7752 M 21.815283 28.616649 41.153917 M 0.0 **** 0.0
7753 O 18.068686 33.047452 9.318619 O 0.0 **** 0.0
7754 H 17.735796 32.255567 9.74091 H 0.0 **** 0.0
7755 H 17.416037 33.718506 9.518528 H 0.0 **** 0.0
7756 M 17.942525 33.031984 9.398268 M 0.0 **** 0.0
7757 O 16.356813 13.918314 39.773953 O 0.0 **** 0.0
7758 H 15.549893 13.419964 39.644508 H 0.0 **** 0.0
7759 H 16.064047 14.821233 39.897455 H 0.0 **** 0.0
7760 M 16.216039 13.970104 39.773192 M 0.0 **** 0.0
7761 O 29.516672 2.909003 4.778176 O 0.0 **** 0.0
7762 H 29.513367 3.599158 4.114923 H 0.0 **** 0.0
7763 H 28.670061 2.474156 4.67626 H 0.0 **** 0.0
7764 M 29.407872 2.941685 4.680224 M 0.0 **** 0.0
7765 O 34.936759 37.42151 46.388804 O 0.0 **** 0.0
7766 H 34.12511 37.431167 45.881496 H 0.0 **** 0.0
7767 H 35.128825 36.492535 46.516651 H 0.0 **** 0.0
7768 M 34.857445 37.303826 46.340228 M 0.0 **** 0.0
7769 O 16.037171 21.943263 35.928375 O 0.0 **** 0.0
7770 H 15.490864 22.154834 36.685352 H 0.0 **** 0.0
7771 H 15.670322 21.1272 35.58824 H 0.0 **** 0.0
7772 M 15.920276 21.86588 35.981736 M 0.0 **** 0.0
7773 O 0.348305 25.411614 32.42587 O 0.0 **** 0.0
7774 H 0.010475 26.30462 32.493989 H 0.0 **** 0.0
7775 H 1.299968 25.513196 32.441573 H 0.0 **** 0.0
7776 M 0.426883 25.538934 32.4366 M 0.0 **** 0.0
7777 O 30.899982 46.876399 32.073038 O 0.0 **** 0.0
7778 H 31.052258 47.460965 31.330526 H 0.0 **** 0.0
7779 H 31.689154 46.958051 32.608546 H 0.0 **** 0.0
7780 M 31.020499 46.961683 32.046539 M 0.0 **** 0.0
7781 O 22.555666 23.836927 46.938886 O 0.0 **** 0.0
7782 H 21.674398 23.464833 46.905101 H 0.0 **** 0.0
7783 H 23.136518 23.076473 46.962337 H 0.0 **** 0.0
7784 M 22.517209 23.691947 46.937563 M 0.0 **** 0.0
7785 O 42.9486 37.917579 1.438946 O 0.0 **** 0.0
7786 H 42.55359 37.047288 1.386126 H 0.0 **** 0.0
7787 H 42.664487 38.359065 0.638572 H 0.0 **** 0.0
7788 M 42.861664 37.862686 1.329727 M 0.0 **** 0.0
7789 O 18.904092 44.099565 37.547882 O 0.0 **** 0.0
7790 H 19.30485 44.813953 38.043131 H 0.0 **** 0.0
7791 H 18.43105 43.588244 38.204397 H 0.0 **** 0.0
7792 M 18.894839 44.12556 37.695322 M 0.0 **** 0.0
7793 O 5.002545 28.763041 6.019289 O 0.0 **** 0.0
7794 H 5.907143 28.450214 6.010885 H 0.0 **** 0.0
7795 H 4.477839 27.976129 6.16654 H 0.0 **** 0.0
7796 M 5.051176 28.62226 6.037063 M 0.0 **** 0.0
7797 O 35.295351 18.448258 4.539404 O 0.0 **** 0.0
7798 H 36.240623 18.308602 4.482961 H 0.0 **** 0.0
7799 H 34.921738 17.56701 4.532757 H 0.0 **** 0.0
7800 M 35.36853 18.31757 4.531327 M 0.0 **** 0.0
7801 O 40.53469 0.293676 32.836945 O 0.0 **** 0.0
7802 H 40.708288 -0.005216 33.729557 H 0.0 **** 0.0
7803 H 41.309231 0.029425 32.340471 H 0.0 **** 0.0
7804 M 40.656064 0.221586 32.887656 M 0.0 **** 0.0
7805 O 41.224883 21.067975 11.978576 O 0.0 **** 0.0
7806 H 40.549272 21.73225 11.842502 H 0.0 **** 0.0
7807 H 41.003543 20.370611 11.361388 H 0.0 **** 0.0
7808 M 41.110062 21.063739 11.882149 M 0.0 **** 0.0
7809 O 34.41414 33.035784 27.315493 O 0.0 **** 0.0
7810 H 34.214447 33.601988 28.060989 H 0.0 **** 0.0
7811 H 33.574783 32.920547 26.870039 H 0.0 **** 0.0
7812 M 34.281129 33.093514 27.353902 M 0.0 **** 0.0
7813 O 1.008633 14.014203 37.812588 O 0.0 **** 0.0
7814 H 1.882522 14.203573 37.470995 H 0.0 **** 0.0
7815 H 1.002209 13.065947 37.942959 H 0.0 **** 0.0
7816 M 1.119679 13.917056 37.785549 M 0.0 **** 0.0
7817 O 34.237158 18.60553 13.802025 O 0.0 **** 0.0
7818 H 33.387273 18.724296 13.377973 H 0.0 **** 0.0
7819 H 34.646358 19.470093 13.765767 H 0.0 **** 0.0
7820 M 34.180745 18.731409 13.743099 M 0.0 **** 0.0
7821 O 13.026546 14.52789 34.647558 O 0.0 **** 0.0
7822 H 13.953027 14.768323 34.654888 H 0.0 **** 0.0
7823 H 12.561487 15.364519 34.64723 H 0.0 **** 0.0
7824 M 13.085614 14.665767 34.648454 M 0.0 **** 0.0
7825 O 47.45658 31.558747 37.563796 O 0.0 **** 0.0
7826 H 47.985198 31.58153 36.766129 H 0.0 **** 0.0
7827 H 47.603965 32.41104 37.973799 H 0.0 **** 0.0
7828 M 47.543117 31.670768 37.51417 M 0.0 **** 0.0
7829 O 16.500488 24.907319 38.73805 O 0.0 **** 0.0
7830 H 16.877281 24.040737 38.890664 H 0.0 **** 0.0
7831 H 15.606361 24.842729 39.0736 H 0.0 **** 0.0
7832 M 16.434263 24.788117 38.800541 M 0.0 **** 0.0
7833 O 15.588625 14.491592 11.6131 O 0.0 **** 0.0
7834 H 14.937772 14.368583 12.304104 H 0.0 **** 0.0
7835 H 16.247199 15.066288 12.003271 H 0.0 **** 0.0
7836 M 15.589613 14.549413 11.751504 M 0.0 **** 0.0
7837 O 30.948967 35.951066 45.828134 O 0.0 **** 0.0
7838 H 30.858726 35.170057 45.282139 H 0.0 **** 0.0
7839 H 30.220181 36.513191 45.565236 H 0.0 **** 0.0
7840 M 30.844121 35.923046 45.724586 M 0.0 **** 0.0
7841 O 6.14096 24.047878 26.038622 O 0.0 **** 0.0
7842 H 6.515954 24.194035 26.907095 H 0.0 **** 0.0
7843 H 5.487938 23.360798 26.171709 H 0.0 **** 0.0
7844 M 6.105369 23.978633 26.166834 M 0.0 **** 0.0
7845 O 28.265821 17.438178 20.114536 O 0.0 **** 0.0
7846 H 28.972906 17.95612 20.499238 H 0.0 **** 0.0
7847 H 28.617553 16.549173 20.067826 H 0.0 **** 0.0
7848 M 28.401363 17.390677 20.157803 M 0.0 **** 0.0
7849 O 36.200689 21.49971 20.181853 O 0.0 **** 0.0
7850 H 36.211111 20.711835 19.638371 H 0.0 **** 0.0
7851 H 35.739912 22.15047 19.652302 H 0.0 **** 0.0
7852 M 36.143038 21.482158 20.044492 M 0.0 **** 0.0
7853 O 13.91896 43.494282 32.65784 O 0.0 **** 0.0
7854 H 13.159853 42.912513 32.61873 H 0.0 **** 0.0
7855 H 13.833876 44.052142 31.884677 H 0.0 **** 0.0
7856 M 13.810893 43.491222 32.553859 M 0.0 **** 0.0
7857 O 16.801982 22.327808 2.267594 O 0.0 **** 0.0
7858 H 16.593695 23.193274 2.619466 H 0.0 **** 0.0
7859 H 15.95835 21.87788 2.222011 H 0.0 **** 0.0
7860 M 16.667323 22.381002 2.306803 M 0.0 **** 0.0
7861 O 9.636331 29.20922 20.889686 O 0.0 **** 0.0
7862 H 9.743434 28.258063 20.897418 H 0.0 **** 0.0
7863 H 10.516807 29.548571 20.728965 H 0.0 **** 0.0
7864 M 9.762753 29.130901 20.870102 M 0.0 **** 0.0
7865 O 10.550727 9.212045 32.730472 O 0.0 **** 0.0
7866 H 10.332705 9.389026 31.815392 H 0.0 **** 0.0
7867 H 11.286709 8.601502 32.688075 H 0.0 **** 0.0
7868 M 10.617032 9.156543 32.607903 M 0.0 **** 0.0
7869 O 14.327615 30.11945 30.152113 O 0.0 **** 0.0
7870 H 14.870907 29.347897 30.312635 H 0.0 **** 0.0
7871 H 14.915987 30.861011 30.294009 H 0.0 **** 0.0
7872 M 14.472482 30.115611 30.190826 M 0.0 **** 0.0
7873 O 14.077731 6.251196 36.1709 O 0.0 **** 0.0
7874 H 13.77149 6.639703 36.990356 H 0.0 **** 0.0
7875 H 13.326837 5.754857 35.845268 H 0.0 **** 0.0
7876 M 13.942404 6.237392 36.234116 M 0.0 **** 0.0
7877 O 45.422095 29.902888 43.59365 O 0.0 **** 0.0
7878 H 45.875873 30.662859 43.229291 H 0.0 **** 0.0
7879 H 46.107781 29.244234 43.704281 H 0.0 **** 0.0
7880 M 45.567961 29.915858 43.56117 M 0.0 **** 0.0
7881 O 19.331381 10.137923 14.520703 O 0.0 **** 0.0
7882 H 19.175596 11.021668 14.853799 H 0.0 **** 0.0
7883 H 18.565876 9.947388 13.978552 H 0.0 **** 0.0
7884 M 19.213444 10.226662 14.493941 M 0.0 **** 0.0
7885 O 46.065381 15.565897 22.370191 O 0.0 **** 0.0
7886 H 45.906935 14.840766 21.765784 H 0.0 **** 0.0
7887 H 45.213547 15.992866 22.461321 H 0.0 **** 0.0
7888 M 45.936053 15.527729 22.304485 M 0.0 **** 0.0
7889 O 29.641514 25.248784 42.234002 O 0.0 **** 0.0
7890 H 30.470349 24.779376 42.32843 H 0.0 **** 0.0
7891 H 29.830433 26.134234 42.544674 H 0.0 **** 0.0
7892 M 29.771799 25.302042 42.28586 M 0.0 **** 0.0
7893 O 17.941758 10.854724 22.033208 O 0.0 **** 0.0
7894 H 18.153747 10.148744 21.422568 H 0.0 **** 0.0
7895 H 17.617528 10.406898 22.814588 H 0.0 **** 0.0
7896 M 17.92739 10.707022 22.055065 M 0.0 **** 0.0
7897 O 22.11673 32.909168 43.155186 O 0.0 **** 0.0
7898 H 22.848136 33.506444 43.311822 H 0.0 **** 0.0
7899 H 22.473162 32.039963 43.338675 H 0.0 **** 0.0
7900 M 22.255987 32.874358 43.198726 M 0.0 **** 0.0
7901 O 21.518341 38.469112 47.232858 O 0.0 **** 0.0
7902 H 22.355747 38.43908 47.695544 H 0.0 **** 0.0
7903 H 20.910476 38.002234 47.806229 H 0.0 **** 0.0
7904 M 21.547725 38.405502 47.365487 M 0.0 **** 0.0
7905 O 15.407311 13.606053 36.503945 O 0.0 **** 0.0
7906 H 14.559516 14.031246 36.633111 H 0.0 **** 0.0
7907 H 15.650624 13.286938 37.372964 H 0.0 **** 0.0
7908 M 15.329929 13.619632 36.631726 M 0.0 **** 0.0
7909 O 30.812773 27.585916 39.934291 O 0.0 **** 0.0
7910 H 30.065198 27.76317 39.363378 H 0.0 **** 0.0
7911 H 30.424735 27.234701 40.735729 H 0.0 **** 0.0
7912 M 30.6674 27.563647 39.963801 M 0.0 **** 0.0
7913 O 8.880424 20.294132 45.901324 O 0.0 **** 0.0
7914 H 8.7529 21.22658 46.075984 H 0.0 **** 0.0
7915 H 9.830752 20.180924 45.884326 H 0.0 **** 0.0
7916 M 8.985753 20.399005 45.921507 M 0.0 **** 0.0
7917 O 45.613958 38.902707 6.653945 O 0.0 **** 0.0
7918 H 46.089148 39.079931 5.842148 H 0.0 **** 0.0
7919 H 46.24328 38.435342 7.203265 H 0.0 **** 0.0
7920 M 45.755349 38.865565 6.620344 M 0.0 **** 0.0
7921 O 26.968135 11.750614 34.902682 O 0.0 **** 0.0
7922 H 26.394091 11.532537 35.636947 H 0.0 **** 0.0
7923 H 27.732289 11.186141 35.01959 H 0.0 **** 0.0
7924 M 26.992471 11.650438 35.011643 M 0.0 **** 0.0
7925 O 34.505278 4.549339 20.062698 O 0.0 **** 0.0
7926 H 34.138628 4.202371 20.875969 H 0.0 **** 0.0
7927 H 35.19226 3.926853 19.824378 H 0.0 **** 0.0
7928 M 34.546284 4.425237 20.136299 M 0.0 **** 0.0
7929 O 1.003281 24.04565 4.600707 O 0.0 **** 0.0
7930 H 0.339477 24.602151 4.193399 H 0.0 **** 0.0
7931 H 0.997515 23.243612 4.07828 H 0.0 **** 0.0
7932 M 0.917568 24.014218 4.48169 M 0.0 **** 0.0
7933 O 35.654773 19.961175 15.698677 O 0.0 **** 0.0
7934 H 36.10687 20.158022 16.519097 H 0.0 **** 0.0
7935 H 35.197559 19.137507 15.868253 H 0.0 **** 0.0
7936 M 35.654118 19.880934 15.825409 M 0.0 **** 0.0
7937 O 47.724609 32.032363 20.638758 O 0.0 **** 0.0
7938 H 47.007634 32.333827 21.196696 H 0.0 **** 0.0
7939 H 48.000037 32.813469 20.158923 H 0.0 **** 0.0
7940 M 47.668086 32.170946 20.648756 M 0.0 **** 0.0
7941 O 34.352528 16.122753 27.598325 O 0.0 **** 0.0
7942 H 34.991393 16.793906 27.838394 H 0.0 **** 0.0
7943 H 33.627433 16.252011 28.209683 H 0.0 **** 0.0
7944 M 34.341489 16.225215 27.707318 M 0.0 **** 0.0
7945 O 15.235089 41.754316 32.945455 O 0.0 **** 0.0
7946 H 15.980277 41.159628 32.860191 H 0.0 **** 0.0
7947 H 14.470266 41.17915 32.966861 H 0.0 **** 0.0
7948 M 15.232576 41.60456 32.93728 M 0.0 **** 0.0
7949 O 15.377506 23.76489 43.700401 O 0.0 **** 0.0
7950 H 15.272698 23.30251 42.868868 H 0.0 **** 0.0
7951 H 14.910176 23.223516 44.336597 H 0.0 **** 0.0
7952 M 15.304265 23.636397 43.675396 M 0.0 **** 0.0
7953 O 20.79058 6.660748 0.071094 O 0.0 **** 0.0
7954 H 20.154437 5.950495 -0.013117 H 0.0 **** 0.0
7955 H 21.642347 6.225432 0.036138 H 0.0 **** 0.0
7956 M 20.818183 6.514101 0.055839 M 0.0 **** 0.0
7957 O 13.416523 41.216793 20.09864 O 0.0 **** 0.0
7958 H 13.083224 40.357554 20.357192 H 0.0 **** 0.0
7959 H 12.788111 41.838425 20.465928 H 0.0 **** 0.0
7960 M 13.293412 41.186376 20.178755 M 0.0 **** 0.0
7961 O 41.513661 26.579337 32.748895 O 0.0 **** 0.0
7962 H 40.587888 26.391025 32.902881 H 0.0 **** 0.0
7963 H 41.981006 25.906447 33.243907 H 0.0 **** 0.0
7964 M 41.454977 26.469092 32.831975 M 0.0 **** 0.0
7965 O 0.855347 0.851307 5.172925 O 0.0 **** 0.0
7966 H -4.9e-05 0.515692 5.441048 H 0.0 **** 0.0
7967 H 1.20427 1.273572 5.957893 H 0.0 **** 0.0
7968 M 0.790512 0.862399 5.307734 M 0.0 **** 0.0
7969 O 36.761269 28.735119 10.154693 O 0.0 **** 0.0
7970 H 36.009466 29.29888 9.972502 H 0.0 **** 0.0
7971 H 37.071602 28.462442 9.29123 H 0.0 **** 0.0
7972 M 36.704755 28.772381 10.020836 M 0.0 **** 0.0
7973 O 27.629972 9.93513 2.504133 O 0.0 **** 0.0
7974 H 28.021579 9.619894 3.318687 H 0.0 **** 0.0
7975 H 26.805212 10.338565 2.774761 H 0.0 **** 0.0
7976 M 27.574523 9.946421 2.64305 M 0.0 **** 0.0
7977 O 16.373477 14.426952 2.729214 O 0.0 **** 0.0
7978 H 16.315242 15.172236 2.131394 H 0.0 **** 0.0
7979 H 16.428274 14.821255 3.599702 H 0.0 **** 0.0
7980 M 16.373037 14.572833 2.764119 M 0.0 **** 0.0
7981 O 40.596628 34.168552 3.107433 O 0.0 **** 0.0
7982 H 39.642261 34.15241 3.179212 H 0.0 **** 0.0
7983 H 40.842201 33.254178 2.966572 H 0.0 **** 0.0
7984 M 40.505893 34.049434 3.09859 M 0.0 **** 0.0
7985 O 21.349664 37.36172 8.923306 O 0.0 **** 0.0
7986 H 21.773653 38.05172 9.433562 H 0.0 **** 0.0
7987 H 21.742139 36.549981 9.244666 H 0.0 **** 0.0
7988 M 21.454182 37.346136 9.029763 M 0.0 **** 0.0
7989 O 42.769436 18.177409 43.132391 O 0.0 **** 0.0
7990 H 42.950199 18.370672 44.052284 H 0.0 **** 0.0
7991 H 42.061383 17.533761 43.15703 H 0.0 **** 0.0
7992 M 42.701936 18.119754 43.253303 M 0.0 **** 0.0
7993 O 35.097753 33.100021 17.503187 O 0.0 **** 0.0
7994 H 34.169978 32.867157 17.53836 H 0.0 **** 0.0
7995 H 35.441816 32.844998 18.359232 H 0.0 **** 0.0
7996 M 35.023031 33.037565 17.617274 M 0.0 **** 0.0
7997 O 47.754515 10.924777 42.569026 O 0.0 **** 0.0
7998 H 47.200955 11.695413 42.695206 H 0.0 **** 0.0
7999 H 47.23539 10.19757 42.912402 H 0.0 **** 0.0
8000 M 47.617198 10.930337 42.629135 M 0.0 **** 0.0
8001 O 36.581022 29.265661 0.773245 O 0.0 **** 0.0
8002 H 36.608776 28.659102 1.513208 H 0.0 **** 0.0
8003 H 36.634047 28.703715 0.000176 H 0.0 **** 0.0
8004 M 36.591363 29.116078 0.769007 M 0.0 **** 0.0
8005 O 12.487497 18.406986 30.48881 O 0.0 **** 0.0
8006 H 13.119393 17.709638 30.313759 H 0.0 **** 0.0
8007 H 11.638857 17.964388 30.500863 H 0.0 **** 0.0
8008 M 12.459751 18.261058 30.467944 M 0.0 **** 0.0
8009 O 45.739065 39.469877 47.941739 O 0.0 **** 0.0
8010 H 44.927043 38.966368 47.999426 H 0.0 **** 0.0
8011 H 45.452059 40.377983 47.845815 H 0.0 **** 0.0
8012 M 45.598375 39.521671 47.936844 M 0.0 **** 0.0
8013 O 45.327747 18.031281 30.572828 O 0.0 **** 0.0
8014 H 44.398775 17.80621 30.521999 H 0.0 **** 0.0
8015 H 45.47118 18.626139 29.836758 H 0.0 **** 0.0
8016 M 45.227188 18.078618 30.472095 M 0.0 **** 0.0
8017 O 1.286588 7.195201 12.257076 O 0.0 **** 0.0
8018 H 0.671424 6.771342 12.855529 H 0.0 **** 0.0
8019 H 1.322307 8.104495 12.553954 H 0.0 **** 0.0
8020 M 1.212412 7.257342 12.37169 M 0.0 **** 0.0
8021 O 44.32843 29.582815 17.076179 O 0.0 **** 0.0
8022 H 43.609825 28.960163 17.186364 H 0.0 **** 0.0
8023 H 43.896653 30.427673 16.94964 H 0.0 **** 0.0
8024 M 44.181167 29.611261 17.074086 M 0.0 **** 0.0
8025 O 2.879654 37.917065 20.844046 O 0.0 **** 0.0
8026 H 3.097888 37.092421 20.409804 H 0.0 **** 0.0
8027 H 3.051431 37.75283 21.771272 H 0.0 **** 0.0
8028 M 2.929581 37.790476 20.907154 M 0.0 **** 0.0
8029 O 21.500428 14.022443 43.730892 O 0.0 **** 0.0
8030 H 22.191455 14.445394 43.221164 H 0.0 **** 0.0
8031 H 21.948008 13.324517 44.209223 H 0.0 **** 0.0
8032 M 21.646184 13.987242 43.726873 M 0.0 **** 0.0
8033 O 21.502848 37.167423 16.593019 O 0.0 **** 0.0
8034 H 22.059548 36.771248 15.922676 H 0.0 **** 0.0
8035 H 22.116874 37.558699 17.214391 H 0.0 **** 0.0
8036 M 21.652716 37.166796 16.58675 M 0.0 **** 0.0
8037 O 6.887015 21.743304 21.430349 O 0.0 **** 0.0
8038 H 6.730714 21.818248 22.371721 H 0.0 **** 0.0
8039 H 6.924781 20.800794 21.267629 H 0.0 **** 0.0
8040 M 6.871841 21.632245 21.530026 M 0.0 **** 0.0
8041 O 32.949895 5.932963 47.888835 O 0.0 **** 0.0
8042 H 32.125505 5.52547 47.623204 H 0.0 **** 0.0
8043 H 33.55529 5.199826 47.999455 H 0.0 **** 0.0
8044 M 32.921861 5.786948 47.868992 M 0.0 **** 0.0
8045 O 34.756796 47.343409 27.657689 O 0.0 **** 0.0
8046 H 34.1563 47.993754 27.29343 H 0.0 **** 0.0
8047 H 34.864223 46.698035 26.95899 H 0.0 **** 0.0
8048 M 34.693677 47.344045 27.521617 M 0.0 **** 0.0
8049 O 41.858313 4.137059 36.440505 O 0.0 **** 0.0
8050 H 42.716228 3.71263 36.432102 H 0.0 **** 0.0
8051 H 42.053667 5.073715 36.413296 H 0.0 **** 0.0
8052 M 41.993145 4.202631 36.435946 M 0.0 **** 0.0
8053 O 33.203987 21.38455 16.251797 O 0.0 **** 0.0
8054 H 33.483788 20.471326 16.188855 H 0.0 **** 0.0
8055 H 34.000269 21.864358 16.479718 H 0.0 **** 0.0
8056 M 33.341739 21.329067 16.272916 M 0.0 **** 0.0
8057 O 28.741097 35.914961 35.95026 O 0.0 **** 0.0
8058 H 28.417165 36.448688 36.675816 H 0.0 **** 0.0
8059 H 29.600813 36.283239 35.74657 H 0.0 **** 0.0
8060 M 28.809684 36.030429 36.017065 M 0.0 **** 0.0
8061 O 25.202898 45.524204 17.500169 O 0.0 **** 0.0
8062 H 25.739947 45.528907 16.70784 H 0.0 **** 0.0
8063 H 25.82961 45.407468 18.214195 H 0.0 **** 0.0
8064 M 25.351874 45.509862 17.490145 M 0.0 **** 0.0
8065 O 41.786974 2.010458 7.601486 O 0.0 **** 0.0
8066 H 41.23913 2.597197 8.122862 H 0.0 **** 0.0
8067 H 41.605457 1.138298 7.951653 H 0.0 **** 0.0
8068 M 41.693607 1.97392 7.713054 M 0.0 **** 0.0
8069 O 37.843294 33.527282 26.502932 O 0.0 **** 0.0
8070 H 37.411797 33.760936 27.324786 H 0.0 **** 0.0
8071 H 37.147892 33.146575 25.966549 H 0.0 **** 0.0
8072 M 37.699037 33.508457 26.539476 M 0.0 **** 0.0
8073 O 31.398761 39.882586 16.39368 O 0.0 **** 0.0
8074 H 31.806485 39.016723 16.410131 H 0.0 **** 0.0
8075 H 31.225494 40.083774 17.313316 H 0.0 **** 0.0
8076 M 31.428774 39.797499 16.513511 M 0.0 **** 0.0
8077 O 46.403523 43.443845 19.317275 O 0.0 **** 0.0
8078 H 46.980719 42.937155 18.746014 H 0.0 **** 0.0
8079 H 46.969365 44.118399 19.692812 H 0.0 **** 0.0
8080 M 46.549847 43.465334 19.29222 M 0.0 **** 0.0
8081 O 23.846871 32.498704 12.860686 O 0.0 **** 0.0
8082 H 23.20922 31.849768 13.158197 H 0.0 **** 0.0
8083 H 24.147922 32.16875 12.014089 H 0.0 **** 0.0
8084 M 23.803782 32.373394 12.790396 M 0.0 **** 0.0
8085 O 41.267923 19.150838 22.626021 O 0.0 **** 0.0
8086 H 41.312481 20.026411 23.010228 H 0.0 **** 0.0
8087 H 41.646556 18.576966 23.292006 H 0.0 **** 0.0
8088 M 41.322097 19.189459 22.760459 M 0.0 **** 0.0
8089 O 44.498956 35.000019 13.595649 O 0.0 **** 0.0
8090 H 44.845466 35.041295 12.704327 H 0.0 **** 0.0
8091 H 44.668452 35.868988 13.959509 H 0.0 **** 0.0
8092 M 44.565011 35.116542 13.528127 M 0.0 **** 0.0
8093 O 4.399409 7.013262 39.764348 O 0.0 **** 0.0
8094 H 4.387646 7.964174 39.873234 H 0.0 **** 0.0
8095 H 5.150735 6.721832 40.28088 H 0.0 **** 0.0
8096 M 4.494082 7.097684 39.844409 M 0.0 **** 0.0
8097 O 40.149682 10.981079 9.589967 O 0.0 **** 0.0
8098 H 41.006741 10.57005 9.47712 H 0.0 **** 0.0
8099 H 39.729322 10.472969 10.283761 H 0.0 **** 0.0
8100 M 40.205585 10.863418 9.664336 M 0.0 **** 0.0
8101 O 34.926413 25.178277 16.057715 O 0.0 **** 0.0
8102 H 35.759085 25.535868 16.365959 H 0.0 **** 0.0
8103 H 35.098893 24.912946 15.154345 H 0.0 **** 0.0
8104 M 35.055085 25.190087 15.981532 M 0.0 **** 0.0
8105 O 5.735407 5.845529 8.385507 O 0.0 **** 0.0
8106 H 4.8301 5.8105 8.694413 H 0.0 **** 0.0
8107 H 5.681093 6.273951 7.531263 H 0.0 **** 0.0
8108 M 5.612563 5.895889 8.315697 M 0.0 **** 0.0
8109 O 25.077705 39.903567 6.738919 O 0.0 **** 0.0
8110 H 24.120573 39.892651 6.741927 H 0.0 **** 0.0
8111 H 25.306723 40.790516 6.461246 H 0.0 **** 0.0
8112 M 24.984497 40.01571 6.703758 M 0.0 **** 0.0
8113 O 38.909046 27.051762 16.066321 O 0.0 **** 0.0
8114 H 39.106434 27.976329 16.216134 H 0.0 **** 0.0
8115 H 38.14463 26.877522 16.615444 H 0.0 **** 0.0
8116 M 38.83646 27.147813 16.155793 M 0.0 **** 0.0
8117 O 0.940386 34.980639 4.553107 O 0.0 **** 0.0
8118 H 0.000115 34.843188 4.438099 H 0.0 **** 0.0
8119 H 1.049828 35.930982 4.519947 H 0.0 **** 0.0
8120 M 0.834029 35.084699 4.534139 M 0.0 **** 0.0
8121 O 14.208801 24.249181 18.805429 O 0.0 **** 0.0
8122 H 14.587975 23.631603 18.180087 H 0.0 **** 0.0
8123 H 13.30349 23.957218 18.912184 H 0.0 **** 0.0
8124 M 14.141449 24.132748 18.739043 M 0.0 **** 0.0
8125 O 13.132223 8.036856 0.37501 O 0.0 **** 0.0
8126 H 12.196229 7.850819 0.4494 H 0.0 **** 0.0
8127 H 13.172983 8.917154 0.001323 H 0.0 **** 0.0
8128 M 13.017622 8.12573 0.336696 M 0.0 **** 0.0
8129 O 7.584302 44.858396 22.777839 O 0.0 **** 0.0
8130 H 8.341322 45.421232 22.940215 H 0.0 **** 0.0
8131 H 6.938139 45.436399 22.372111 H 0.0 **** 0.0
8132 M 7.598493 45.004438 22.746687 M 0.0 **** 0.0
8133 O 40.379483 11.844956 45.591172 O 0.0 **** 0.0
8134 H 41.203381 11.775528 46.073458 H 0.0 **** 0.0
8135 H 40.642605 11.89106 44.672003 H 0.0 **** 0.0
8136 M 40.518635 11.841971 45.535245 M 0.0 **** 0.0
8137 O 11.272114 16.135895 16.075931 O 0.0 **** 0.0
8138 H 11.51844 15.211026 16.062894 H 0.0 **** 0.0
8139 H 12.097568 16.605793 15.957396 H 0.0 **** 0.0
8140 M 11.409315 16.077653 16.059088 M 0.0 **** 0.0
8141 O 31.941859 20.630673 2.902771 O 0.0 **** 0.0
8142 H 31.051052 20.411275 3.175821 H 0.0 **** 0.0
8143 H 32.355068 19.784754 2.72983 H 0.0 **** 0.0
8144 M 31.88072 20.494299 2.915586 M 0.0 **** 0.0
8145 O 40.809885 42.582081 2.989335 O 0.0 **** 0.0
8146 H 41.688493 42.68733 3.3543 H 0.0 **** 0.0
8147 H 40.945241 42.101559 2.172631 H 0.0 **** 0.0
8148 M 40.939685 42.534041 2.931507 M 0.0 **** 0.0
8149 O 24.682918 42.55888 24.136374 O 0.0 **** 0.0
8150 H 24.16358 42.099501 24.796289 H 0.0 **** 0.0
8151 H 25.205424 41.872439 23.721627 H 0.0 **** 0.0
8152 M 24.683324 42.412201 24.167759 M 0.0 **** 0.0
8153 O 32.552706 37.755983 14.241534 O 0.0 **** 0.0
8154 H 33.109619 38.318772 14.779442 H 0.0 **** 0.0
8155 H 31.686219 38.159942 14.288933 H 0.0 **** 0.0
8156 M 32.513076 37.879739 14.316461 M 0.0 **** 0.0
8157 O 28.752565 35.462603 39.535821 O 0.0 **** 0.0
8158 H 29.359592 36.087809 39.931881 H 0.0 **** 0.0
8159 H 28.224263 35.988502 38.935358 H 0.0 **** 0.0
8160 M 28.762643 35.609959 39.509655 M 0.0 **** 0.0
8161 O 41.727958 19.302105 16.076291 O 0.0 **** 0.0
8162 H 41.801682 19.918382 15.347597 H 0.0 **** 0.0
8163 H 41.211326 19.768301 16.733543 H 0.0 **** 0.0
8164 M 41.67126 19.440675 16.067146 M 0.0 **** 0.0
8165 O 34.121375 21.037665 2.981577 O 0.0 **** 0.0
8166 H 34.890448 21.312027 2.482096 H 0.0 **** 0.0
8167 H 34.379663 20.208276 3.383609 H 0.0 **** 0.0
8168 M 34.25289 20.966615 2.969103 M 0.0 **** 0.0
8169 O 3.485482 16.338549 21.721678 O 0.0 **** 0.0
8170 H 2.700171 16.600251 22.202331 H 0.0 **** 0.0
8171 H 3.335573 15.41974 21.499088 H 0.0 **** 0.0
8172 M 3.365762 16.254431 21.754713 M 0.0 **** 0.0
8173 O 15.142607 30.461658 27.887647 O 0.0 **** 0.0
8174 H 14.665035 31.278717 28.031061 H 0.0 **** 0.0
8175 H 14.460342 29.793845 27.818575 H 0.0 **** 0.0
8176 M 14.994133 30.480763 27.897164 M 0.0 **** 0.0
8177 O 23.773685 44.45764 29.437965 O 0.0 **** 0.0
8178 H 23.404299 44.639234 28.573786 H 0.0 **** 0.0
8179 H 24.488851 43.844222 29.269195 H 0.0 **** 0.0
8180 M 23.817949 44.402361 29.305735 M 0.0 **** 0.0
8181 O 39.766107 13.339453 -0.000218 O 0.0 **** 0.0
8182 H 39.757311 12.390896 0.127806 H 0.0 **** 0.0
8183 H 38.941552 13.640766 0.38129 H 0.0 **** 0.0
8184 M 39.659427 13.256598 0.065009 M 0.0 **** 0.0
8185 O 12.918681 41.4282 34.634028 O 0.0 **** 0.0
8186 H 13.637382 40.917339 35.006477 H 0.0 **** 0.0
8187 H 13.190975 42.339503 34.741783 H 0.0 **** 0.0
8188 M 13.04554 41.479461 34.6955 M 0.0 **** 0.0
8189 O 3.318124 27.349725 28.231973 O 0.0 **** 0.0
8190 H 2.474933 26.903312 28.154683 H 0.0 **** 0.0
8191 H 3.219043 27.919383 28.994798 H 0.0 **** 0.0
8192 M 3.197501 27.365502 28.31973 M 0.0 **** 0.0
8193 O 16.937716 36.487315 16.448899 O 0.0 **** 0.0
8194 H 16.9899 35.581013 16.752414 H 0.0 **** 0.0
8195 H 17.296039 37.003283 17.171126 H 0.0 **** 0.0
8196 M 16.990266 36.437348 16.580207 M 0.0 **** 0.0
8197 O 5.993252 19.855663 40.370312 O 0.0 **** 0.0
8198 H 6.285602 20.68259 39.986969 H 0.0 **** 0.0
8199 H 6.680816 19.22958 40.143367 H 0.0 **** 0.0
8200 M 6.118694 19.881374 40.292188 M 0.0 **** 0.0
8201 O 35.803672 4.441407 16.780839 O 0.0 **** 0.0
8202 H 36.008592 5.351478 16.566344 H 0.0 **** 0.0
8203 H 34.847558 4.412591 16.816112 H 0.0 **** 0.0
8204 M 35.70751 4.554219 16.757897 M 0.0 **** 0.0
8205 O 11.566043 4.196638 26.827653 O 0.0 **** 0.0
8206 H 11.030767 4.301608 26.041086 H 0.0 **** 0.0
8207 H 11.965492 5.055981 26.962554 H 0.0 **** 0.0
8208 M 11.548656 4.320082 26.744232 M 0.0 **** 0.0
8209 O 42.559258 18.055939 38.787625 O 0.0 **** 0.0
8210 H 43.240513 18.287885 38.156498 H 0.0 **** 0.0
8211 H 42.06417 17.35699 38.360324 H 0.0 **** 0.0
8212 M 42.583089 17.996157 38.652133 M 0.0 **** 0.0
8213 O 1.784198 33.490068 38.849027 O 0.0 **** 0.0
8214 H 2.448369 34.111085 39.148097 H 0.0 **** 0.0
8215 H 1.237402 33.994872 38.247017 H 0.0 **** 0.0
8216 M 1.799224 33.634188 38.810247 M 0.0 **** 0.0
8217 O 42.857695 39.748237 38.23238 O 0.0 **** 0.0
8218 H 42.855026 38.848091 38.557893 H 0.0 **** 0.0
8219 H 43.776275 39.928412 38.032441 H 0.0 **** 0.0
8220 M 42.974943 39.656072 38.248455 M 0.0 **** 0.0
8221 O 24.053844 18.819588 40.09669 O 0.0 **** 0.0
8222 H 23.124322 18.953129 40.28212 H 0.0 **** 0.0
8223 H 24.066349 18.203495 39.364227 H 0.0 **** 0.0
8224 M 23.936454 18.757815 40.026663 M 0.0 **** 0.0
8225 O 36.49758 24.651136 29.328647 O 0.0 **** 0.0
8226 H 36.819177 25.51095 29.5998 H 0.0 **** 0.0
8227 H 37.251719 24.070246 29.428998 H 0.0 **** 0.0
8228 M 36.635288 24.686842 29.376204 M 0.0 **** 0.0
8229 O 40.190784 35.788862 19.594632 O 0.0 **** 0.0
8230 H 40.50602 35.624813 18.705845 H 0.0 **** 0.0
8231 H 40.984949 35.827976 20.12755 H 0.0 **** 0.0
8232 M 40.332802 35.772869 19.549076 M 0.0 **** 0.0
8233 O 20.076013 10.03986 27.101865 O 0.0 **** 0.0
8234 H 19.766896 10.851466 27.504323 H 0.0 **** 0.0
8235 H 20.151371 9.42406 27.830795 H 0.0 **** 0.0
8236 M 20.046089 10.064926 27.246697 M 0.0 **** 0.0
8237 O 24.069636 5.510594 32.446871 O 0.0 **** 0.0
8238 H 23.501374 4.995654 31.874033 H 0.0 **** 0.0
8239 H 24.54698 6.090264 31.853277 H 0.0 **** 0.0
8240 M 24.057997 5.51888 32.297553 M 0.0 **** 0.0
8241 O 36.867838 36.780138 33.366158 O 0.0 **** 0.0
8242 H 37.453991 37.272308 33.940982 H 0.0 **** 0.0
8243 H 36.900036 35.883989 33.700985 H 0.0 **** 0.0
8244 M 36.946994 36.728423 33.482605 M 0.0 **** 0.0
8245 O 16.105393 2.378131 38.063211 O 0.0 **** 0.0
8246 H 15.300666 2.877124 38.203385 H 0.0 **** 0.0
8247 H 15.843627 1.464227 38.174949 H 0.0 **** 0.0
8248 M 15.968869 2.325017 38.095459 M 0.0 **** 0.0
8249 O 42.735096 25.330692 47.954287 O 0.0 **** 0.0
8250 H 42.321209 24.805083 47.269699 H 0.0 **** 0.0
8251 H 42.205389 26.126711 47.99893 H 0.0 **** 0.0
8252 M 42.614304 25.365308 47.872366 M 0.0 **** 0.0
8253 O 27.869204 17.459649 15.160061 O 0.0 **** 0.0
8254 H 28.191368 18.360872 15.144678 H 0.0 **** 0.0
8255 H 28.384846 17.032096 15.84383 H 0.0 **** 0.0
8256 M 27.976453 17.520285 15.245623 M 0.0 **** 0.0
8257 O 27.447444 21.920901 5.931052 O 0.0 **** 0.0
8258 H 26.667953 21.369345 5.99745 H 0.0 **** 0.0
8259 H 27.954081 21.715986 6.7169 H 0.0 **** 0.0
8260 M 27.412515 21.824063 6.04015 M 0.0 **** 0.0
8261 O 39.283455 19.450497 15.244186 O 0.0 **** 0.0
8262 H 39.540035 20.371165 15.296772 H 0.0 **** 0.0
8263 H 38.368851 19.439759 15.526346 H 0.0 **** 0.0
8264 M 39.19922 19.566979 15.287038 M 0.0 **** 0.0
8265 O 41.031418 46.451771 38.667113 O 0.0 **** 0.0
8266 H 40.281654 45.858065 38.707057 H 0.0 **** 0.0
8267 H 40.644411 47.327241 38.664337 H 0.0 **** 0.0
8268 M 40.885897 46.487841 38.671871 M 0.0 **** 0.0
8269 O 6.769235 33.621189 35.647744 O 0.0 **** 0.0
8270 H 6.690452 33.172051 34.80614 H 0.0 **** 0.0
8271 H 5.965627 34.13602 35.721173 H 0.0 **** 0.0
8272 M 6.656278 33.629599 35.549408 M 0.0 **** 0.0
8273 O 4.227212 21.426612 10.82297 O 0.0 **** 0.0
8274 H 4.663102 20.629116 10.522589 H 0.0 **** 0.0
8275 H 4.031979 21.910262 10.020353 H 0.0 **** 0.0
8276 M 4.258019 21.386435 10.681772 M 0.0 **** 0.0
8277 O 14.777664 30.503685 43.48362 O 0.0 **** 0.0
8278 H 14.176613 29.991602 42.942568 H 0.0 **** 0.0
8279 H 15.207927 29.85666 44.042603 H 0.0 **** 0.0
8280 M 14.755801 30.355305 43.485915 M 0.0 **** 0.0
8281 O 12.391212 23.145746 12.870142 O 0.0 **** 0.0
8282 H 11.449664 23.193026 12.704367 H 0.0 **** 0.0
8283 H 12.747869 22.698582 12.102633 H 0.0 **** 0.0
8284 M 12.316339 23.094556 12.75067 M 0.0 **** 0.0
8285 O 44.392453 38.937765 31.463512 O 0.0 **** 0.0
8286 H 43.645541 38.667173 31.997489 H 0.0 **** 0.0
8287 H 44.852845 39.580562 32.003031 H 0.0 **** 0.0
8288 M 44.355775 38.985412 31.600933 M 0.0 **** 0.0
8289 O 12.78445 27.877593 18.697476 O 0.0 **** 0.0
8290 H 13.538078 28.379343 18.386798 H 0.0 **** 0.0
8291 H 13.054896 26.963028 18.61588 H 0.0 **** 0.0
8292 M 12.915544 27.824747 18.64726 M 0.0 **** 0.0
8293 O 3.273673 45.158414 30.727206 O 0.0 **** 0.0
8294 H 2.677157 45.906922 30.738811 H 0.0 **** 0.0
8295 H 2.746175 44.426182 31.046284 H 0.0 **** 0.0
8296 M 3.129785 45.160498 30.769538 M 0.0 **** 0.0
8297 O 33.931103 44.750829 15.383863 O 0.0 **** 0.0
8298 H 33.67099 44.018863 14.824582 H 0.0 **** 0.0
8299 H 34.883655 44.679317 15.445177 H 0.0 **** 0.0
8300 M 34.019744 44.647974 15.320117 M 0.0 **** 0.0
8301 O 9.02421 3.449797 10.019012 O 0.0 **** 0.0
8302 H 9.427015 2.581519 10.010638 H 0.0 **** 0.0
8303 H 9.712553 4.030568 10.34323 H 0.0 **** 0.0
8304 M 9.163891 3.412992 10.059444 M 0.0 **** 0.0
8305 O 26.439051 27.033222 16.006571 O 0.0 **** 0.0
8306 H 27.268558 26.558266 15.955941 H 0.0 **** 0.0
8307 H 25.769837 26.348876 15.999361 H 0.0 **** 0.0
8308 M 26.45957 26.884817 15.999167 M 0.0 **** 0.0
8309 O 44.974342 15.472291 14.264165 O 0.0 **** 0.0
8310 H 45.202689 14.733304 13.700264 H 0.0 **** 0.0
8311 H 45.506902 16.197293 13.937086 H 0.0 **** 0.0
8312 M 45.071747 15.470501 14.150109 M 0.0 **** 0.0
8313 O 33.008643 28.416828 17.409738 O 0.0 **** 0.0
8314 H 33.588061 27.712438 17.119328 H 0.0 **** 0.0
8315 H 33.556282 29.201636 17.38983 H 0.0 **** 0.0
8316 M 33.15292 28.427122 17.370013 M 0.0 **** 0.0
8317 O 6.572992 39.764216 11.973826 O 0.0 **** 0.0
8318 H 5.690942 40.09231 11.79898 H 0.0 **** 0.0
8319 H 7.077934 40.00815 11.198095 H 0.0 **** 0.0
8320 M 6.524717 39.837443 11.85214 M 0.0 **** 0.0
8321 O 34.497044 25.23621 37.183625 O 0.0 **** 0.0
8322 H 33.747033 25.685889 36.794394 H 0.0 **** 0.0
8323 H 35.027359 25.937461 37.562099 H 0.0 **** 0.0
8324 M 34.46892 25.383544 37.182248 M 0.0 **** 0.0
8325 O 37.954071 19.865716 42.81883 O 0.0 **** 0.0
8326 H 37.051737 20.109662 43.025017 H 0.0 **** 0.0
8327 H 37.944705 18.90884 42.79583 H 0.0 **** 0.0
8328 M 37.837362 19.774452 42.84228 M 0.0 **** 0.0
8329 O 30.257729 6.380001 8.438454 O 0.0 **** 0.0
8330 H 30.52438 5.973917 9.26321 H 0.0 **** 0.0
8331 H 29.325343 6.177538 8.361689 H 0.0 **** 0.0
8332 M 30.172507 6.302099 8.534206 M 0.0 **** 0.0
8333 O 31.483557 45.835521 15.340632 O 0.0 **** 0.0
8334 H 30.849144 45.941709 14.631778 H 0.0 **** 0.0
8335 H 31.720035 44.908372 15.314168 H 0.0 **** 0.0
8336 M 31.432616 45.730428 15.246502 M 0.0 **** 0.0
8337 O 3.457609 38.805755 2.859621 O 0.0 **** 0.0
8338 H 3.992929 39.3855 3.401428 H 0.0 **** 0.0
8339 H 2.555689 39.016835 3.100897 H 0.0 **** 0.0
8340 M 3.410679 38.90699 2.959865 M 0.0 **** 0.0
8341 O 14.7673 25.883957 28.71053 O 0.0 **** 0.0
8342 H 14.580365 26.536454 29.385461 H 0.0 **** 0.0
8343 H 14.338299 26.222064 27.924483 H 0.0 **** 0.0
8344 M 14.688453 26.010766 28.696306 M 0.0 **** 0.0
8345 O 21.796282 17.702444 6.88624 O 0.0 **** 0.0
8346 H 21.584833 16.870692 6.462322 H 0.0 **** 0.0
8347 H 22.244521 18.209628 6.209429 H 0.0 **** 0.0
8348 M 21.826594 17.660895 6.745333 M 0.0 **** 0.0
8349 O 29.13612 43.370962 27.263794 O 0.0 **** 0.0
8350 H 28.994916 42.470671 27.556653 H 0.0 **** 0.0
8351 H 30.07644 43.422935 27.09255 H 0.0 **** 0.0
8352 M 29.238417 43.262367 27.279362 M 0.0 **** 0.0
8353 O 17.549009 12.101162 30.593868 O 0.0 **** 0.0
8354 H 16.67082 12.34671 30.302805 H 0.0 **** 0.0
8355 H 17.888188 12.886892 31.022604 H 0.0 **** 0.0
8356 M 17.480009 12.233179 30.611492 M 0.0 **** 0.0
8357 O 22.744273 44.817468 2.858649 O 0.0 **** 0.0
8358 H 23.073077 44.09798 3.397586 H 0.0 **** 0.0
8359 H 21.832889 44.924284 3.131039 H 0.0 **** 0.0
8360 M 22.669696 44.739038 2.962509 M 0.0 **** 0.0
8361 O 9.122351 7.385237 40.71073 O 0.0 **** 0.0
8362 H 9.645271 6.583524 40.704496 H 0.0 **** 0.0
8363 H 9.767196 8.092485 40.696472 H 0.0 **** 0.0
8364 M 9.271839 7.373144 40.708107 M 0.0 **** 0.0
8365 O 21.108747 9.956878 29.739832 O 0.0 **** 0.0
8366 H 20.403124 10.289364 30.294609 H 0.0 **** 0.0
8367 H 21.648895 9.429836 30.328641 H 0.0 **** 0.0
8368 M 21.087564 9.931973 29.886226 M 0.0 **** 0.0
8369 O 29.155524 21.728822 26.376513 O 0.0 **** 0.0
8370 H 29.083992 20.84415 26.734937 H 0.0 **** 0.0
8371 H 29.27738 22.289151 27.142941 H 0.0 **** 0.0
8372 M 29.161966 21.687302 26.520508 M 0.0 **** 0.0
8373 O 21.19064 17.452814 24.916203 O 0.0 **** 0.0
8374 H 20.700238 17.483969 24.094763 H 0.0 **** 0.0
8375 H 21.071869 18.321743 25.299719 H 0.0 **** 0.0
8376 M 21.112658 17.568036 24.860144 M 0.0 **** 0.0
8377 O 21.823339 37.742581 42.576893 O 0.0 **** 0.0
8378 H 21.494901 37.123598 43.22898 H 0.0 **** 0.0
8379 H 21.186876 38.4575 42.582669 H 0.0 **** 0.0
8380 M 21.69982 37.754862 42.661108 M 0.0 **** 0.0
8381 O 20.244476 29.925171 28.877485 O 0.0 **** 0.0
8382 H 20.339869 28.991545 28.689146 H 0.0 **** 0.0
8383 H 20.100378 29.965778 29.822904 H 0.0 **** 0.0
8384 M 20.238241 29.810853 28.974401 M 0.0 **** 0.0
8385 O 19.49735 6.790308 40.576297 O 0.0 **** 0.0
8386 H 19.158574 6.54402 41.436996 H 0.0 **** 0.0
8387 H 19.46054 7.746767 40.568602 H 0.0 **** 0.0
8388 M 19.44927 6.881219 40.685492 M 0.0 **** 0.0
8389 O 47.808156 30.551206 13.399418 O 0.0 **** 0.0
8390 H 48.006621 30.991266 14.22597 H 0.0 **** 0.0
8391 H 47.602928 31.262166 12.792255 H 0.0 **** 0.0
8392 M 47.807291 30.698551 13.427503 M 0.0 **** 0.0
8393 O 34.540225 18.519653 0.350128 O 0.0 **** 0.0
8394 H 34.936288 17.722097 -0.000965 H 0.0 **** 0.0
8395 H 34.470594 18.358853 1.291151 H 0.0 **** 0.0
8396 M 34.582012 18.396972 0.425647 M 0.0 **** 0.0
8397 O 29.367873 40.333696 28.020847 O 0.0 **** 0.0
8398 H 29.638727 39.830099 27.253217 H 0.0 **** 0.0
8399 H 29.531977 39.749594 28.761201 H 0.0 **** 0.0
8400 M 29.423553 40.194457 28.017355 M 0.0 **** 0.0
8401 O 44.812928 5.953483 11.203701 O 0.0 **** 0.0
8402 H 45.517954 5.537544 11.699848 H 0.0 **** 0.0
8403 H 44.046439 5.885657 11.77302 H 0.0 **** 0.0
8404 M 44.80506 5.891555 11.340094 M 0.0 **** 0.0
8405 O 4.260262 26.974441 21.001725 O 0.0 **** 0.0
8406 H 3.675387 26.218304 20.95266 H 0.0 **** 0.0
8407 H 3.985646 27.439377 21.792073 H 0.0 **** 0.0
8408 M 4.150236 26.937163 21.096619 M 0.0 **** 0.0
8409 O 42.317773 18.997327 13.42223 O 0.0 **** 0.0
8410 H 42.225861 18.23733 13.996848 H 0.0 **** 0.0
8411 H 41.80388 18.774801 12.645941 H 0.0 **** 0.0
8412 M 42.240222 18.871552 13.396414 M 0.0 **** 0.0
8413 O 44.452782 16.147399 6.876912 O 0.0 **** 0.0
8414 H 43.807888 16.549188 6.294755 H 0.0 **** 0.0
8415 H 44.921468 15.523962 6.322036 H 0.0 **** 0.0
8416 M 44.430225 16.119025 6.731357 M 0.0 **** 0.0
8417 O 47.395269 37.151561 29.344283 O 0.0 **** 0.0
8418 H 46.444914 37.15222 29.458533 H 0.0 **** 0.0
8419 H 47.620123 36.230991 29.209304 H 0.0 **** 0.0
8420 M 47.302396 37.033801 29.341629 M 0.0 **** 0.0
8421 O 25.874262 33.055161 21.611201 O 0.0 **** 0.0
8422 H 26.44516 33.44071 20.946629 H 0.0 **** 0.0
8423 H 26.400649 32.359764 22.005622 H 0.0 **** 0.0
8424 M 26.014728 33.015497 21.576618 M 0.0 **** 0.0
8425 O 0.780726 15.990852 3.882574 O 0.0 **** 0.0
8426 H 0.978926 15.608706 3.027641 H 0.0 **** 0.0
8427 H -0.0001 16.523669 3.732087 H 0.0 **** 0.0
8428 M 0.706142 16.01014 3.753867 M 0.0 **** 0.0
8429 O 20.751119 21.119672 41.874778 O 0.0 **** 0.0
8430 H 20.128769 21.815171 41.662198 H 0.0 **** 0.0
8431 H 21.610571 21.532283 41.789204 H 0.0 **** 0.0
8432 M 20.781471 21.261524 41.83661 M 0.0 **** 0.0
8433 O 31.648895 37.592512 10.565084 O 0.0 **** 0.0
8434 H 31.359781 36.744524 10.902068 H 0.0 **** 0.0
8435 H 32.58937 37.613083 10.742036 H 0.0 **** 0.0
8436 M 31.732277 37.486592 10.630874 M 0.0 **** 0.0
8437 O 13.600474 8.027384 43.619853 O 0.0 **** 0.0
8438 H 13.141082 8.863291 43.539555 H 0.0 **** 0.0
8439 H 12.955028 7.434878 44.005293 H 0.0 **** 0.0
8440 M 13.459041 8.058543 43.658915 M 0.0 **** 0.0
8441 O 15.371236 44.704736 14.694412 O 0.0 **** 0.0
8442 H 14.464091 44.95203 14.515072 H 0.0 **** 0.0
8443 H 15.304463 43.880605 15.176675 H 0.0 **** 0.0
8444 M 15.246562 44.630894 14.73319 M 0.0 **** 0.0
8445 O 25.449317 35.493751 22.476005 O 0.0 **** 0.0
8446 H 24.701668 35.059939 22.064841 H 0.0 **** 0.0
8447 H 25.058879 36.095338 23.109945 H 0.0 **** 0.0
8448 M 25.303628 35.515228 22.504523 M 0.0 **** 0.0
8449 O 40.025291 19.399797 1.614609 O 0.0 **** 0.0
8450 H 40.10651 20.353542 1.616225 H 0.0 **** 0.0
8451 H 39.081645 19.239296 1.615091 H 0.0 **** 0.0
8452 M 39.91489 19.501342 1.614878 M 0.0 **** 0.0
8453 O 42.86335 38.728231 46.29402 O 0.0 **** 0.0
8454 H 41.982833 39.088627 46.188987 H 0.0 **** 0.0
8455 H 43.443314 39.486066 46.219474 H 0.0 **** 0.0
8456 M 42.824876 38.871379 46.271032 M 0.0 **** 0.0
8457 O 28.872235 21.417882 9.896063 O 0.0 **** 0.0
8458 H 28.913679 22.111364 10.554542 H 0.0 **** 0.0
8459 H 28.374001 20.717079 10.316617 H 0.0 **** 0.0
8460 M 28.81376 21.416945 10.034193 M 0.0 **** 0.0
8461 O 24.608445 19.745038 18.655443 O 0.0 **** 0.0
8462 H 25.499951 19.513022 18.915473 H 0.0 **** 0.0
8463 H 24.582605 20.700165 18.712831 H 0.0 **** 0.0
8464 M 24.719261 19.837605 18.696077 M 0.0 **** 0.0
8465 O 45.073356 25.936369 35.643035 O 0.0 **** 0.0
8466 H 46.02405 25.884017 35.741372 H 0.0 **** 0.0
8467 H 44.902762 26.857546 35.446672 H 0.0 **** 0.0
8468 M 45.173219 26.047589 35.630486 M 0.0 **** 0.0
8469 O 17.333551 44.947655 2.168621 O 0.0 **** 0.0
8470 H 16.406825 44.708276 2.158427 H 0.0 **** 0.0
8471 H 17.347806 45.863893 1.891973 H 0.0 **** 0.0
8472 M 17.216744 45.034301 2.131901 M 0.0 **** 0.0
8473 O 20.844394 27.857929 3.295036 O 0.0 **** 0.0
8474 H 21.359549 28.650832 3.443857 H 0.0 **** 0.0
8475 H 21.496213 27.169304 3.164055 H 0.0 **** 0.0
8476 M 20.993781 27.871278 3.29732 M 0.0 **** 0.0
8477 O 12.460549 26.438268 25.651626 O 0.0 **** 0.0
8478 H 12.761334 27.192897 26.157877 H 0.0 **** 0.0
8479 H 11.510451 26.43452 25.767943 H 0.0 **** 0.0
8480 M 12.377429 26.53439 25.731322 M 0.0 **** 0.0
8481 O 26.674014 48.000034 7.335323 O 0.0 **** 0.0
8482 H 26.68907 47.274754 6.710846 H 0.0 **** 0.0
8483 H 26.152308 47.674388 8.068812 H 0.0 **** 0.0
8484 M 26.609156 47.865502 7.349278 M 0.0 **** 0.0
8485 O 12.411392 -0.003173 13.051856 O 0.0 **** 0.0
8486 H 11.734775 0.554307 13.43609 H 0.0 **** 0.0
8487 H 13.190915 0.551513 13.021911 H 0.0 **** 0.0
8488 M 12.424565 0.139199 13.097209 M 0.0 **** 0.0
8489 O 8.208255 26.049501 24.26497 O 0.0 **** 0.0
8490 H 7.343497 25.936616 23.870408 H 0.0 **** 0.0
8491 H 8.761709 26.355768 23.546557 H 0.0 **** 0.0
8492 M 8.168405 26.074256 24.122496 M 0.0 **** 0.0
8493 O 10.163909 33.798831 18.703521 O 0.0 **** 0.0
8494 H 10.282299 33.243138 19.473856 H 0.0 **** 0.0
8495 H 9.423399 33.409611 18.238352 H 0.0 **** 0.0
8496 M 10.08427 33.677871 18.742586 M 0.0 **** 0.0
8497 O 21.470253 44.603567 7.623424 O 0.0 **** 0.0
8498 H 22.345372 44.988701 7.668882 H 0.0 **** 0.0
8499 H 21.583704 43.811284 7.098405 H 0.0 **** 0.0
8500 M 21.596802 44.551447 7.562034 M 0.0 **** 0.0
8501 O 37.828634 32.485512 12.950122 O 0.0 **** 0.0
8502 H 38.658595 32.032544 12.80108 H 0.0 **** 0.0
8503 H 37.545972 32.189978 13.815565 H 0.0 **** 0.0
8504 M 37.898696 32.389694 13.041831 M 0.0 **** 0.0
8505 O 13.185148 16.036529 13.349134 O 0.0 **** 0.0
8506 H 12.371546 16.229564 13.814985 H 0.0 **** 0.0
8507 H 12.987772 15.252977 12.835988 H 0.0 **** 0.0
8508 M 13.05573 15.960935 13.343079 M 0.0 **** 0.0
8509 O 19.456487 40.258862 27.333872 O 0.0 **** 0.0
8510 H 20.181934 39.634684 27.31493 H 0.0 **** 0.0
8511 H 19.871589 41.104137 27.505422 H 0.0 **** 0.0
8512 M 19.602492 40.287165 27.353408 M 0.0 **** 0.0
8513 O 37.536611 46.210037 43.489145 O 0.0 **** 0.0
8514 H 37.067687 46.24663 42.655478 H 0.0 **** 0.0
8515 H 37.064196 45.553976 44.001626 H 0.0 **** 0.0
8516 M 37.416108 46.130738 43.448029 M 0.0 **** 0.0
8517 O 4.192321 0.251306 6.778578 O 0.0 **** 0.0
8518 H 4.780547 0.980216 6.581324 H 0.0 **** 0.0
8519 H 3.468822 0.352644 6.160106 H 0.0 **** 0.0
8520 M 4.175005 0.357588 6.674155 M 0.0 **** 0.0
8521 O 30.325199 14.908991 44.418265 O 0.0 **** 0.0
8522 H 30.227166 14.120724 44.952356 H 0.0 **** 0.0
8523 H 31.265879 14.971074 44.252447 H 0.0 **** 0.0
8524 M 30.433068 14.81603 44.465408 M 0.0 **** 0.0
8525 O 1.253307 33.793434 43.700516 O 0.0 **** 0.0
8526 H 1.665117 33.899597 44.558054 H 0.0 **** 0.0
8527 H 0.511768 34.398556 43.713826 H 0.0 **** 0.0
8528 M 1.211097 33.884488 43.811996 M 0.0 **** 0.0
8529 O 13.699995 32.057392 15.143712 O 0.0 **** 0.0
8530 H 14.168015 31.241406 14.966646 H 0.0 **** 0.0
8531 H 14.390425 32.711591 15.25122 H 0.0 **** 0.0
8532 M 13.848291 32.036682 15.134808 M 0.0 **** 0.0
8533 O 4.883543 19.854736 19.913416 O 0.0 **** 0.0
8534 H 5.803251 19.627764 19.776122 H 0.0 **** 0.0
8535 H 4.42278 19.441459 19.183259 H 0.0 **** 0.0
8536 M 4.942294 19.772776 19.802372 M 0.0 **** 0.0
8537 O 8.665122 24.472799 14.099914 O 0.0 **** 0.0
8538 H 9.554362 24.452679 14.453574 H 0.0 **** 0.0
8539 H 8.33985 23.580268 14.217455 H 0.0 **** 0.0
8540 M 8.737317 24.355968 14.160234 M 0.0 **** 0.0
8541 O 20.86117 16.316125 22.152903 O 0.0 **** 0.0
8542 H 20.387853 15.756996 22.768999 H 0.0 **** 0.0
8543 H 20.264445 17.045045 21.983128 H 0.0 **** 0.0
8544 M 20.724191 16.337861 22.210038 M 0.0 **** 0.0
8545 O 26.370668 12.600085 30.964783 O 0.0 **** 0.0
8546 H 27.137919 12.853864 30.451801 H 0.0 **** 0.0
8547 H 26.701339 12.499493 31.857401 H 0.0 **** 0.0
8548 M 26.511216 12.619695 31.013381 M 0.0 **** 0.0
8549 O 42.825827 25.350923 44.08333 O 0.0 **** 0.0
8550 H 42.144397 25.549158 43.441002 H 0.0 **** 0.0
8551 H 43.245246 24.557248 43.75107 H 0.0 **** 0.0
8552 M 42.792287 25.274699 43.95857 M 0.0 **** 0.0
8553 O 25.545582 25.054994 11.259704 O 0.0 **** 0.0
8554 H 25.224806 24.158868 11.158267 H 0.0 **** 0.0
8555 H 24.759195 25.5736 11.429623 H 0.0 **** 0.0
8556 M 25.403851 25.006667 11.26847 M 0.0 **** 0.0
8557 O 6.853185 0.645034 12.78224 O 0.0 **** 0.0
8558 H 6.191462 0.54337 12.098123 H 0.0 **** 0.0
8559 H 7.520517 -0.007373 12.569491 H 0.0 **** 0.0
8560 M 6.853903 0.548504 12.66743 M 0.0 **** 0.0
8561 O 3.6984 30.027836 27.108299 O 0.0 **** 0.0
8562 H 4.612755 30.239808 27.296053 H 0.0 **** 0.0
8563 H 3.292824 29.930486 27.969844 H 0.0 **** 0.0
8564 M 3.763531 30.042509 27.242622 M 0.0 **** 0.0
8565 O 37.117446 3.56329 29.936807 O 0.0 **** 0.0
8566 H 37.088709 2.777264 29.391311 H 0.0 **** 0.0
8567 H 37.979578 3.536025 30.351795 H 0.0 **** 0.0
8568 M 37.224131 3.459179 29.9201 M 0.0 **** 0.0
8569 O 46.347726 34.409103 36.365431 O 0.0 **** 0.0
8570 H 46.015683 35.28551 36.560078 H 0.0 **** 0.0
8571 H 47.087344 34.294673 36.962172 H 0.0 **** 0.0
8572 M 46.399901 34.506645 36.466739 M 0.0 **** 0.0
8573 O 42.301221 33.715744 27.403583 O 0.0 **** 0.0
8574 H 41.892562 33.029362 27.93094 H 0.0 **** 0.0
8575 H 43.079931 33.968018 27.899766 H 0.0 **** 0.0
8576 M 42.348592 33.660173 27.534609 M 0.0 **** 0.0
8577 O 14.552729 26.140087 24.957231 O 0.0 **** 0.0
8578 H 14.022043 25.890239 24.200807 H 0.0 **** 0.0
8579 H 15.105415 26.853255 24.63761 H 0.0 **** 0.0
8580 M 14.555545 26.199398 24.819484 M 0.0 **** 0.0
8581 O 13.249249 22.35791 1.757865 O 0.0 **** 0.0
8582 H 13.919876 23.017272 1.579735 H 0.0 **** 0.0
8583 H 13.717438 21.655056 2.208447 H 0.0 **** 0.0
8584 M 13.395032 22.352342 1.792742 M 0.0 **** 0.0
8585 O 5.060524 47.700372 11.743318 O 0.0 **** 0.0
8586 H 5.448668 47.845801 12.606118 H 0.0 **** 0.0
8587 H 4.493756 46.937969 11.860547 H 0.0 **** 0.0
8588 M 5.037658 47.621392 11.868774 M 0.0 **** 0.0
8589 O 42.144408 39.905467 23.568035 O 0.0 **** 0.0
8590 H 43.00335 40.297145 23.409805 H 0.0 **** 0.0
8591 H 42.333109 39.098977 24.04782 H 0.0 **** 0.0
8592 M 42.27852 39.852366 23.609198 M 0.0 **** 0.0
8593 O 23.281398 26.172848 32.076031 O 0.0 **** 0.0
8594 H 23.706536 27.021481 31.952302 H 0.0 **** 0.0
8595 H 22.760244 26.047611 31.282972 H 0.0 **** 0.0
8596 M 23.269107 26.265452 31.958671 M 0.0 **** 0.0
8597 O 5.510215 2.912319 28.628047 O 0.0 **** 0.0
8598 H 4.882971 2.782642 27.916726 H 0.0 **** 0.0
8599 H 5.220286 2.313116 29.315889 H 0.0 **** 0.0
8600 M 5.392805 2.819013 28.625042 M 0.0 **** 0.0
8601 O 23.780136 47.102458 34.363888 O 0.0 **** 0.0
8602 H 22.995108 46.571419 34.229887 H 0.0 **** 0.0
8603 H 23.460342 48.004565 34.376662 H 0.0 **** 0.0
8604 M 23.638705 47.149959 34.34837 M 0.0 **** 0.0
8605 O 35.533211 28.732436 20.029145 O 0.0 **** 0.0
8606 H 35.85281 27.841738 20.173165 H 0.0 **** 0.0
8607 H 35.127332 28.704609 19.162705 H 0.0 **** 0.0
8608 M 35.522166 28.614853 19.936666 M 0.0 **** 0.0
8609 O 11.338602 6.703448 36.086724 O 0.0 **** 0.0
8610 H 11.46622 6.860232 35.151116 H 0.0 **** 0.0
8611 H 11.779124 7.437263 36.515309 H 0.0 **** 0.0
8612 M 11.411331 6.817456 36.021818 M 0.0 **** 0.0
8613 O 11.903487 32.278343 24.871162 O 0.0 **** 0.0
8614 H 12.160681 31.561793 25.451366 H 0.0 **** 0.0
8615 H 12.515839 32.984855 25.07633 H 0.0 **** 0.0
8616 M 12.0148 32.277058 24.971699 M 0.0 **** 0.0
8617 O 28.61493 37.41421 1.155421 O 0.0 **** 0.0
8618 H 28.683733 36.505022 0.864092 H 0.0 **** 0.0
8619 H 27.775114 37.714634 0.808028 H 0.0 **** 0.0
8620 M 28.516231 37.336281 1.073657 M 0.0 **** 0.0
8621 O 14.60753 10.510309 19.208418 O 0.0 **** 0.0
8622 H 14.140529 9.743093 19.539353 H 0.0 **** 0.0
8623 H 14.009359 11.24112 19.364416 H 0.0 **** 0.0
8624 M 14.471175 10.505649 19.270751 M 0.0 **** 0.0
8625 O 20.811087 39.053973 37.00052 O 0.0 **** 0.0
8626 H 19.949502 39.453136 37.121218 H 0.0 **** 0.0
8627 H 20.884448 38.922661 36.055214 H 0.0 **** 0.0
8628 M 20.710184 39.088261 36.89496 M 0.0 **** 0.0
8629 O 37.74567 14.733426 14.164843 O 0.0 **** 0.0
8630 H 36.854991 14.753475 13.814817 H 0.0 **** 0.0
8631 H 37.718727 15.316974 14.923114 H 0.0 **** 0.0
8632 M 37.628203 14.810694 14.217103 M 0.0 **** 0.0
8633 O 21.988523 17.836875 2.860783 O 0.0 **** 0.0
8634 H 22.322626 17.030789 3.254264 H 0.0 **** 0.0
8635 H 22.597623 18.515907 3.150856 H 0.0 **** 0.0
8636 M 22.109265 17.820611 2.948286 M 0.0 **** 0.0
8637 O 27.625859 0.504795 3.01193 O 0.0 **** 0.0
8638 H 26.822642 -0.003322 2.898401 H 0.0 **** 0.0
8639 H 27.324467 1.403335 3.146156 H 0.0 **** 0.0
8640 M 27.484455 0.554774 3.014579 M 0.0 **** 0.0
8641 O 14.73874 0.412501 30.392156 O 0.0 **** 0.0
8642 H 13.89546 0.591456 30.808189 H 0.0 **** 0.0
8643 H 15.262472 -7e-06 31.079012 H 0.0 **** 0.0
8644 M 14.697834 0.382603 30.533339 M 0.0 **** 0.0
8645 O 30.028901 1.617023 18.303004 O 0.0 **** 0.0
8646 H 29.637233 1.133233 17.575837 H 0.0 **** 0.0
8647 H 30.972596 1.525409 18.171569 H 0.0 **** 0.0
8648 M 30.099568 1.543364 18.193092 M 0.0 **** 0.0
8649 O 11.600479 17.176169 38.793861 O 0.0 **** 0.0
8650 H 12.524093 16.925022 38.784317 H 0.0 **** 0.0
8651 H 11.21436 16.644414 39.489833 H 0.0 **** 0.0
8652 M 11.669285 17.075948 38.881732 M 0.0 **** 0.0
8653 O 5.345779 29.078364 34.497341 O 0.0 **** 0.0
8654 H 6.20388 28.994624 34.913128 H 0.0 **** 0.0
8655 H 5.313098 29.986004 34.195098 H 0.0 **** 0.0
8656 M 5.451444 29.183833 34.511876 M 0.0 **** 0.0
8657 O 36.588004 47.378441 45.130877 O 0.0 **** 0.0
8658 H 35.788554 47.399653 45.656861 H 0.0 **** 0.0
8659 H 36.427822 48.005234 44.425398 H 0.0 **** 0.0
8660 M 36.465159 47.461394 45.107899 M 0.0 **** 0.0
8661 O 5.228801 11.764315 6.676486 O 0.0 **** 0.0
8662 H 5.912846 11.338879 6.159462 H 0.0 **** 0.0
8663 H 5.021959 12.562504 6.190338 H 0.0 **** 0.0
8664 M 5.289889 11.812032 6.548067 M 0.0 **** 0.0
8665 O 31.431053 24.067599 28.90389 O 0.0 **** 0.0
8666 H 30.89764 23.357628 28.546622 H 0.0 **** 0.0
8667 H 30.884373 24.847973 28.812309 H 0.0 **** 0.0
8668 M 31.292787 24.076611 28.846432 M 0.0 **** 0.0
8669 O 7.430562 3.193192 39.850033 O 0.0 **** 0.0
8670 H 6.684588 2.761235 40.266163 H 0.0 **** 0.0
8671 H 7.228231 4.127158 39.904778 H 0.0 **** 0.0
8672 M 7.309167 3.257455 39.910311 M 0.0 **** 0.0
8673 O 38.842933 12.85777 20.103488 O 0.0 **** 0.0
8674 H 38.298931 13.645194 20.119412 H 0.0 **** 0.0
8675 H 38.243245 12.156905 19.84777 H 0.0 **** 0.0
8676 M 38.696527 12.86885 20.072791 M 0.0 **** 0.0
8677 O 0.964025 4.563222 26.114615 O 0.0 **** 0.0
8678 H 1.888194 4.72788 25.927459 H 0.0 **** 0.0
8679 H 0.53078 4.632824 25.26392 H 0.0 **** 0.0
8680 M 1.02687 4.59321 25.981757 M 0.0 **** 0.0
8681 O 37.329224 26.552766 8.01328 O 0.0 **** 0.0
8682 H 36.663839 26.07499 7.51808 H 0.0 **** 0.0
8683 H 37.529623 27.316015 7.471505 H 0.0 **** 0.0
8684 M 37.2697 26.58931 7.880534 M 0.0 **** 0.0
8685 O 25.400382 33.903734 31.236195 O 0.0 **** 0.0
8686 H 24.758888 33.59888 30.594495 H 0.0 **** 0.0
8687 H 25.64722 34.77725 30.932436 H 0.0 **** 0.0
8688 M 25.349861 33.97653 31.115164 M 0.0 **** 0.0
8689 O 0.336624 11.270612 22.72893 O 0.0 **** 0.0
8690 H 0.078772 12.177752 22.892751 H 0.0 **** 0.0
8691 H 1.235793 11.331219 22.406359 H 0.0 **** 0.0
8692 M 0.418721 11.394496 22.708608 M 0.0 **** 0.0
8693 O 25.536714 18.743136 35.753602 O 0.0 **** 0.0
8694 H 25.189829 18.602339 34.87265 H 0.0 **** 0.0
8695 H 25.211669 17.999548 36.261196 H 0.0 **** 0.0
8696 M 25.450699 18.629924 35.705808 M 0.0 **** 0.0
8697 O 35.034263 26.589953 27.690381 O 0.0 **** 0.0
8698 H 35.195333 25.651267 27.786052 H 0.0 **** 0.0
8699 H 35.337648 26.97073 28.514514 H 0.0 **** 0.0
8700 M 35.093719 26.518534 27.808128 M 0.0 **** 0.0
8701 O 15.983869 23.600045 24.785941 O 0.0 **** 0.0
8702 H 16.647309 23.150691 24.262341 H 0.0 **** 0.0
8703 H 16.462274 23.932724 25.545337 H 0.0 **** 0.0
8704 M 16.13004 23.585109 24.816125 M 0.0 **** 0.0
8705 O 34.210933 20.506064 22.383305 O 0.0 **** 0.0
8706 H 34.945339 20.712065 21.804997 H 0.0 **** 0.0
8707 H 34.328377 19.581195 22.600222 H 0.0 **** 0.0
8708 M 34.319981 20.41404 22.337042 M 0.0 **** 0.0
8709 O 4.865242 8.166332 0.040808 O 0.0 **** 0.0
8710 H 5.749909 7.820933 0.160368 H 0.0 **** 0.0
8711 H 4.308102 7.389224 -0.003077 H 0.0 **** 0.0
8712 M 4.90717 8.022637 0.050495 M 0.0 **** 0.0
8713 O 5.275516 25.190634 28.425196 O 0.0 **** 0.0
8714 H 5.055307 25.990497 28.902642 H 0.0 **** 0.0
8715 H 4.454785 24.925143 28.010293 H 0.0 **** 0.0
8716 M 5.142262 25.25904 28.433202 M 0.0 **** 0.0
8717 O 35.015629 6.650276 25.294205 O 0.0 **** 0.0
8718 H 35.422273 5.809953 25.505691 H 0.0 **** 0.0
8719 H 35.430429 7.274278 25.889849 H 0.0 **** 0.0
8720 M 35.120784 6.622584 25.397528 M 0.0 **** 0.0
8721 O 39.616377 25.078871 20.15272 O 0.0 **** 0.0
8722 H 39.564461 25.925996 19.710101 H 0.0 **** 0.0
8723 H 40.175555 25.239152 20.91289 H 0.0 **** 0.0
8724 M 39.681313 25.207832 20.19337 M 0.0 **** 0.0
8725 O 43.310756 14.161194 18.484163 O 0.0 **** 0.0
8726 H 42.509518 14.659174 18.646217 H 0.0 **** 0.0
8727 H 43.381015 14.123349 17.530297 H 0.0 **** 0.0
8728 M 43.217182 14.220097 18.382801 M 0.0 **** 0.0
8729 O 16.603058 27.305331 28.992192 O 0.0 **** 0.0
8730 H 16.498631 27.91036 29.726538 H 0.0 **** 0.0
8731 H 16.427842 27.837436 28.216053 H 0.0 **** 0.0
8732 M 16.56726 27.450899 28.986842 M 0.0 **** 0.0
8733 O 26.6306 17.018801 27.231679 O 0.0 **** 0.0
8734 H 25.973949 16.831089 26.561006 H 0.0 **** 0.0
8735 H 27.297292 17.533853 26.777288 H 0.0 **** 0.0
8736 M 26.631885 17.060705 27.087657 M 0.0 **** 0.0
8737 O 43.211905 26.665104 2.14098 O 0.0 **** 0.0
8738 H 42.307682 26.965208 2.048533 H 0.0 **** 0.0
8739 H 43.73383 27.337203 1.702681 H 0.0 **** 0.0
8740 M 43.162966 26.789558 2.073038 M 0.0 **** 0.0
8741 O 25.808891 3.918224 17.657347 O 0.0 **** 0.0
8742 H 24.910638 3.959724 17.32925 H 0.0 **** 0.0
8743 H 25.91575 4.721658 18.166567 H 0.0 **** 0.0
8744 M 25.707583 4.026386 17.680533 M 0.0 **** 0.0
8745 O 37.937086 22.559667 40.532852 O 0.0 **** 0.0
8746 H 38.398684 21.809539 40.158067 H 0.0 **** 0.0
8747 H 37.041262 22.478148 40.205616 H 0.0 **** 0.0
8748 M 37.881499 22.453206 40.442984 M 0.0 **** 0.0
8749 O 3.121589 36.864341 6.713815 O 0.0 **** 0.0
8750 H 3.957667 36.543469 7.051815 H 0.0 **** 0.0
8751 H 2.794568 36.150909 6.165818 H 0.0 **** 0.0
8752 M 3.186755 36.731937 6.686933 M 0.0 **** 0.0
8753 O 19.897057 43.518848 22.000205 O 0.0 **** 0.0
8754 H 19.230252 44.07661 21.599579 H 0.0 **** 0.0
8755 H 20.329975 43.093063 21.260261 H 0.0 **** 0.0
8756 M 19.867117 43.535743 21.854198 M 0.0 **** 0.0
8757 O 35.834533 34.843671 21.507605 O 0.0 **** 0.0
8758 H 36.395044 35.606967 21.647017 H 0.0 **** 0.0
8759 H 36.42277 34.174745 21.157257 H 0.0 **** 0.0
8760 M 35.981587 34.855752 21.480602 M 0.0 **** 0.0
8761 O 3.403663 23.754528 13.340935 O 0.0 **** 0.0
8762 H 2.657178 23.279447 13.706019 H 0.0 **** 0.0
8763 H 4.076031 23.084949 13.215184 H 0.0 **** 0.0
8764 M 3.394175 23.607998 13.371572 M 0.0 **** 0.0
8765 O 18.676212 41.75453 35.507082 O 0.0 **** 0.0
8766 H 19.486414 41.284821 35.705005 H 0.0 **** 0.0
8767 H 18.569463 42.366368 36.235428 H 0.0 **** 0.0
8768 M 18.766262 41.772725 35.625656 M 0.0 **** 0.0
8769 O 45.627217 15.658408 17.415545 O 0.0 **** 0.0
8770 H 44.958381 15.556586 18.092686 H 0.0 **** 0.0
8771 H 45.143505 15.948335 16.642115 H 0.0 **** 0.0
8772 M 45.479676 15.682488 17.403219 M 0.0 **** 0.0
8773 O 26.10806 24.710083 29.148504 O 0.0 **** 0.0
8774 H 26.035732 23.855622 29.573821 H 0.0 **** 0.0
8775 H 25.453895 24.68667 28.450114 H 0.0 **** 0.0
8776 M 26.01506 24.597704 29.113547 M 0.0 **** 0.0
8777 O 36.480612 34.150978 37.942068 O 0.0 **** 0.0
8778 H 36.579712 35.028045 38.312422 H 0.0 **** 0.0
8779 H 37.216811 33.654786 38.299885 H 0.0 **** 0.0
8780 M 36.587541 34.199735 38.035283 M 0.0 **** 0.0
8781 O 10.964226 39.138881 3.136344 O 0.0 **** 0.0
8782 H 10.312078 39.647905 3.617828 H 0.0 **** 0.0
8783 H 10.931022 38.268853 3.534059 H 0.0 **** 0.0
8784 M 10.876492 39.092668 3.248893 M 0.0 **** 0.0
8785 O 37.035935 25.473267 19.666113 O 0.0 **** 0.0
8786 H 37.646636 24.975099 19.12288 H 0.0 **** 0.0
8787 H 37.402875 26.356986 19.691091 H 0.0 **** 0.0
8788 M 37.161085 25.522622 19.59977 M 0.0 **** 0.0
8789 O 12.090477 36.686919 34.555294 O 0.0 **** 0.0
8790 H 12.151186 35.756305 34.339651 H 0.0 **** 0.0
8791 H 11.236605 36.956464 34.216951 H 0.0 **** 0.0
8792 M 11.988943 36.602293 34.484377 M 0.0 **** 0.0
8793 O 36.924577 16.576831 32.966903 O 0.0 **** 0.0
8794 H 37.487232 16.895785 32.261271 H 0.0 **** 0.0
8795 H 37.248498 15.695399 33.152322 H 0.0 **** 0.0
8796 M 37.03807 16.504827 32.900309 M 0.0 **** 0.0
8797 O 26.360794 3.557403 5.961718 O 0.0 **** 0.0
8798 H 25.416879 3.716315 5.96065 H 0.0 **** 0.0
8799 H 26.746573 4.404803 6.183792 H 0.0 **** 0.0
8800 M 26.289346 3.686224 5.990009 M 0.0 **** 0.0
8801 O 9.881736 5.859412 4.14437 O 0.0 **** 0.0
8802 H 10.52674 5.161031 4.032735 H 0.0 **** 0.0
8803 H 9.892903 6.04868 5.082603 H 0.0 **** 0.0
8804 M 9.965734 5.794239 4.250185 M 0.0 **** 0.0
8805 O 14.188991 12.100922 41.255006 O 0.0 **** 0.0
8806 H 13.493373 12.756304 41.201904 H 0.0 **** 0.0
8807 H 13.754069 11.272445 41.053271 H 0.0 **** 0.0
8808 M 14.044267 12.078764 41.222383 M 0.0 **** 0.0
8809 O 28.845054 46.118633 39.331533 O 0.0 **** 0.0
8810 H 28.392749 45.550744 39.955354 H 0.0 **** 0.0
8811 H 29.697146 45.702224 39.202031 H 0.0 **** 0.0
8812 M 28.896232 45.99263 39.394812 M 0.0 **** 0.0
8813 O 24.286949 43.357713 11.759804 O 0.0 **** 0.0
8814 H 24.229145 44.310435 11.68763 H 0.0 **** 0.0
8815 H 24.200878 43.043198 10.859859 H 0.0 **** 0.0
8816 M 24.268531 43.439412 11.63536 M 0.0 **** 0.0
8817 O 16.320364 44.73352 16.932053 O 0.0 **** 0.0
8818 H 17.027308 45.051446 17.493643 H 0.0 **** 0.0
8819 H 15.521619 45.071042 17.337408 H 0.0 **** 0.0
8820 M 16.308613 44.817426 17.055834 M 0.0 **** 0.0
8821 O 26.617414 35.492945 35.535069 O 0.0 **** 0.0
8822 H 25.66733 35.607215 35.512458 H 0.0 **** 0.0
8823 H 26.745609 34.544577 35.515218 H 0.0 **** 0.0
8824 M 26.512202 35.38617 35.529633 M 0.0 **** 0.0
8825 O 21.104269 33.577478 12.025544 O 0.0 **** 0.0
8826 H 20.961854 32.894842 11.369834 H 0.0 **** 0.0
8827 H 20.363458 34.173674 11.9161 H 0.0 **** 0.0
8828 M 20.991205 33.566413 11.927595 M 0.0 **** 0.0
8829 O 25.519822 22.119814 23.822736 O 0.0 **** 0.0
8830 H 24.927065 21.942172 24.553018 H 0.0 **** 0.0
8831 H 24.943479 22.375703 23.102613 H 0.0 **** 0.0
8832 M 25.370163 22.129831 23.824037 M 0.0 **** 0.0
8833 O 46.987941 4.371829 27.394856 O 0.0 **** 0.0
8834 H 46.703026 4.721309 26.550513 H 0.0 **** 0.0
8835 H 47.805824 4.832688 27.581689 H 0.0 **** 0.0
8836 M 47.056168 4.475563 27.310686 M 0.0 **** 0.0
8837 O 33.827703 44.865458 26.269872 O 0.0 **** 0.0
8838 H 33.457205 45.552994 25.71647 H 0.0 **** 0.0
8839 H 33.422346 44.058151 25.953375 H 0.0 **** 0.0
8840 M 33.728384 44.850126 26.158514 M 0.0 **** 0.0
8841 O 33.597111 9.603955 25.643817 O 0.0 **** 0.0
8842 H 33.729254 8.659901 25.730597 H 0.0 **** 0.0
8843 H 32.810238 9.687638 25.105247 H 0.0 **** 0.0
8844 M 33.513297 9.493816 25.585982 M 0.0 **** 0.0
8845 O 3.451873 1.507774 47.751526 O 0.0 **** 0.0
8846 H 3.442192 0.715265 47.214809 H 0.0 **** 0.0
8847 H 3.739613 2.198437 47.154517 H 0.0 **** 0.0
8848 M 3.487468 1.494737 47.606395 M 0.0 **** 0.0
8849 O 1.381627 26.180914 13.287395 O 0.0 **** 0.0
8850 H 2.334243 26.252074 13.226672 H 0.0 **** 0.0
8851 H 1.072997 27.086986 13.290486 H 0.0 **** 0.0
8852 M 1.464065 26.306012 13.280018 M 0.0 **** 0.0
8853 O 13.05421 12.803546 23.483424 O 0.0 **** 0.0
8854 H 12.768281 13.714542 23.415906 H 0.0 **** 0.0
8855 H 12.4693 12.41606 24.134548 H 0.0 **** 0.0
8856 M 12.942732 12.870562 23.558133 M 0.0 **** 0.0
8857 O 14.161888 6.97639 14.403092 O 0.0 **** 0.0
8858 H 14.525809 6.215523 13.950465 H 0.0 **** 0.0
8859 H 13.682464 7.452385 13.724998 H 0.0 **** 0.0
8860 M 14.147103 6.939923 14.258345 M 0.0 **** 0.0
8861 O 24.67733 35.764694 1.687427 O 0.0 **** 0.0
8862 H 25.278098 35.148941 1.26772 H 0.0 **** 0.0
8863 H 24.559802 36.462471 1.042816 H 0.0 **** 0.0
8864 M 24.739191 35.775194 1.551181 M 0.0 **** 0.0
8865 O 41.787902 0.461101 36.411841 O 0.0 **** 0.0
8866 H 42.735593 0.415391 36.538414 H 0.0 **** 0.0
8867 H 41.576266 1.388723 36.51652 H 0.0 **** 0.0
8868 M 41.882126 0.573997 36.441444 M 0.0 **** 0.0
8869 O 47.739267 41.601726 17.06722 O 0.0 **** 0.0
8870 H 48.000434 40.701317 16.874133 H 0.0 **** 0.0
8871 H 46.847766 41.67149 16.725771 H 0.0 **** 0.0
8872 M 47.658576 41.495393 16.998793 M 0.0 **** 0.0
8873 O 15.706268 23.022182 0.0125 O 0.0 **** 0.0
8874 H 16.627283 23.282578 8.8e-05 H 0.0 **** 0.0
8875 H 15.223237 23.848564 0.014525 H 0.0 **** 0.0
8876 M 15.762335 23.161304 0.01117 M 0.0 **** 0.0
8877 O 18.745587 39.77841 4.058788 O 0.0 **** 0.0
8878 H 17.989329 40.35481 4.168632 H 0.0 **** 0.0
8879 H 19.286728 40.215209 3.401063 H 0.0 **** 0.0
8880 M 18.71805 39.908112 3.988653 M 0.0 **** 0.0
8881 O 36.520737 13.558008 10.143194 O 0.0 **** 0.0
8882 H 36.534109 14.181432 10.869412 H 0.0 **** 0.0
8883 H 37.443762 13.406207 9.940192 H 0.0 **** 0.0
8884 M 36.640608 13.618382 10.210172 M 0.0 **** 0.0
8885 O 24.676077 4.722687 25.694908 O 0.0 **** 0.0
8886 H 25.189918 3.915799 25.72851 H 0.0 **** 0.0
8887 H 23.79864 4.460203 25.973181 H 0.0 **** 0.0
8888 M 24.629532 4.585794 25.734832 M 0.0 **** 0.0
8889 O 15.125048 0.950036 33.460331 O 0.0 **** 0.0
8890 H 15.921099 1.446962 33.648999 H 0.0 **** 0.0
8891 H 14.460655 1.617329 33.288482 H 0.0 **** 0.0
8892 M 15.141902 1.099071 33.462484 M 0.0 **** 0.0
8893 O 9.20819 25.138286 12.0767 O 0.0 **** 0.0
8894 H 8.827577 25.781514 11.478687 H 0.0 **** 0.0
8895 H 10.153006 25.274509 12.006018 H 0.0 **** 0.0
8896 M 9.280415 25.238065 11.991099 M 0.0 **** 0.0
8897 O 6.055889 11.457035 10.489732 O 0.0 **** 0.0
8898 H 6.312591 12.099735 9.828468 H 0.0 **** 0.0
8899 H 5.569031 10.792522 10.002269 H 0.0 **** 0.0
8900 M 6.026426 11.454243 10.342681 M 0.0 **** 0.0
8901 O 14.944596 17.042765 9.042326 O 0.0 **** 0.0
8902 H 15.067002 17.138798 8.097856 H 0.0 **** 0.0
8903 H 14.044781 17.32964 9.1981 H 0.0 **** 0.0
8904 M 14.845078 17.091782 8.941363 M 0.0 **** 0.0
8905 O 23.639751 40.323692 23.607754 O 0.0 **** 0.0
8906 H 22.751182 40.291215 23.253326 H 0.0 **** 0.0
8907 H 23.618642 39.735612 24.3627 H 0.0 **** 0.0
8908 M 23.523301 40.244253 23.659025 M 0.0 **** 0.0
8909 O 9.808276 3.403003 2.815307 O 0.0 **** 0.0
8910 H 9.576627 2.476031 2.757938 H 0.0 **** 0.0
8911 H 9.019061 3.827199 3.152094 H 0.0 **** 0.0
8912 M 9.677593 3.338641 2.851076 M 0.0 **** 0.0
8913 O 19.029555 16.927572 43.373369 O 0.0 **** 0.0
8914 H 19.461585 17.582054 43.922215 H 0.0 **** 0.0
8915 H 18.864459 17.379491 42.545878 H 0.0 **** 0.0
8916 M 19.063726 17.069205 43.337699 M 0.0 **** 0.0
8917 O 2.903003 41.851504 33.364051 O 0.0 **** 0.0
8918 H 2.064 42.003321 33.799086 H 0.0 **** 0.0
8919 H 2.909994 42.470089 32.633618 H 0.0 **** 0.0
8920 M 2.796495 41.950125 33.326236 M 0.0 **** 0.0
8921 O 11.596525 22.137875 0.006219 O 0.0 **** 0.0
8922 H 12.064221 22.97302 0.010975 H 0.0 **** 0.0
8923 H 12.287746 21.475748 0.000663 H 0.0 **** 0.0
8924 M 11.744881 22.160023 0.006116 M 0.0 **** 0.0
8925 O 0.840282 21.667338 25.019346 O 0.0 **** 0.0
8926 H 0.966835 21.542065 24.078857 H 0.0 **** 0.0
8927 H 1.067361 22.584599 25.171977 H 0.0 **** 0.0
8928 M 0.885551 21.768722 24.918491 M 0.0 **** 0.0
8929 O 5.079744 11.322058 40.276394 O 0.0 **** 0.0
8930 H 6.016119 11.292236 40.080075 H 0.0 **** 0.0
8931 H 4.943181 10.611544 40.90309 H 0.0 **** 0.0
8932 M 5.18213 11.227286 40.331488 M 0.0 **** 0.0
8933 O 19.623341 12.329743 38.778871 O 0.0 **** 0.0
8934 H 19.204962 13.06215 39.231383 H 0.0 **** 0.0
8935 H 19.392944 11.561602 39.301465 H 0.0 **** 0.0
8936 M 19.540289 12.325169 38.903697 M 0.0 **** 0.0
8937 O 13.579249 29.892037 39.857181 O 0.0 **** 0.0
8938 H 13.363078 30.373485 40.655746 H 0.0 **** 0.0
8939 H 13.393815 28.977557 40.070653 H 0.0 **** 0.0
8940 M 13.527838 29.836603 39.986734 M 0.0 **** 0.0
8941 O 47.230812 32.374695 40.266703 O 0.0 **** 0.0
8942 H 46.613163 31.688589 40.519677 H 0.0 **** 0.0
8943 H 47.97195 32.261751 40.861839 H 0.0 **** 0.0
8944 M 47.24662 32.272407 40.375272 M 0.0 **** 0.0
8945 O 23.579997 19.125012 45.654503 O 0.0 **** 0.0
8946 H 23.835627 18.326431 46.116184 H 0.0 **** 0.0
8947 H 23.849554 19.835472 46.236581 H 0.0 **** 0.0
8948 M 23.647228 19.113732 45.788117 M 0.0 **** 0.0
8949 O 25.586709 40.15841 25.296058 O 0.0 **** 0.0
8950 H 26.283941 40.789983 25.472721 H 0.0 **** 0.0
8951 H 24.966282 40.278513 26.014998 H 0.0 **** 0.0
8952 M 25.596541 40.254634 25.410706 M 0.0 **** 0.0
8953 O 35.621636 44.619669 28.229588 O 0.0 **** 0.0
8954 H 36.054036 43.772116 28.125128 H 0.0 **** 0.0
8955 H 34.688625 44.409717 28.270078 H 0.0 **** 0.0
8956 M 35.557551 44.484295 28.221399 M 0.0 **** 0.0
8957 O 44.844183 40.582854 33.974054 O 0.0 **** 0.0
8958 H 44.450037 41.235469 33.395286 H 0.0 **** 0.0
8959 H 44.911864 41.023108 34.821299 H 0.0 **** 0.0
8960 M 44.802392 40.722755 34.008422 M 0.0 **** 0.0
8961 O 27.179242 21.800831 38.04821 O 0.0 **** 0.0
8962 H 26.708922 22.617479 37.880536 H 0.0 **** 0.0
8963 H 28.070458 22.076757 38.262288 H 0.0 **** 0.0
8964 M 27.233122 21.940695 38.054151 M 0.0 **** 0.0
8965 O 15.372698 33.090142 17.1806 O 0.0 **** 0.0
8966 H 15.8224 32.305164 16.867861 H 0.0 **** 0.0
8967 H 15.922439 33.413325 17.89444 H 0.0 **** 0.0
8968 M 15.50064 33.031026 17.231946 M 0.0 **** 0.0
8969 O 12.631842 45.348441 16.793113 O 0.0 **** 0.0
8970 H 13.220223 46.09361 16.914604 H 0.0 **** 0.0
8971 H 11.885918 45.536259 17.362807 H 0.0 **** 0.0
8972 M 12.611674 45.467875 16.881594 M 0.0 **** 0.0
8973 O 44.309535 11.258794 37.044662 O 0.0 **** 0.0
8974 H 44.586729 10.449859 37.474796 H 0.0 **** 0.0
8975 H 44.002245 11.817198 37.758796 H 0.0 **** 0.0
8976 M 44.305682 11.226723 37.191143 M 0.0 **** 0.0
8977 O 34.367797 2.544195 24.267092 O 0.0 **** 0.0
8978 H 33.775274 3.274831 24.444056 H 0.0 **** 0.0
8979 H 34.120465 1.874717 24.904943 H 0.0 **** 0.0
8980 M 34.260285 2.552024 24.371399 M 0.0 **** 0.0
8981 O 6.67217 13.729793 18.279759 O 0.0 **** 0.0
8982 H 7.226029 14.457942 17.998212 H 0.0 **** 0.0
8983 H 5.918998 14.148376 18.696591 H 0.0 **** 0.0
8984 M 6.646655 13.876589 18.297077 M 0.0 **** 0.0
8985 O 41.53435 6.901143 31.871372 O 0.0 **** 0.0
8986 H 41.823783 7.730966 32.250649 H 0.0 **** 0.0
8987 H 40.997262 6.499491 32.554337 H 0.0 **** 0.0
8988 M 41.502647 6.955954 32.007352 M 0.0 **** 0.0
8989 O 33.579374 13.695917 44.707409 O 0.0 **** 0.0
8990 H 33.448105 12.803753 45.028408 H 0.0 **** 0.0
8991 H 33.669019 14.225321 45.499825 H 0.0 **** 0.0
8992 M 33.574046 13.649479 44.84994 M 0.0 **** 0.0
8993 O 26.708065 21.206404 34.760329 O 0.0 **** 0.0
8994 H 25.917571 20.670844 34.693063 H 0.0 **** 0.0
8995 H 27.384002 20.693249 34.317598 H 0.0 **** 0.0
8996 M 26.6934 21.072155 34.695043 M 0.0 **** 0.0
8997 O 1.194317 2.245702 0.939824 O 0.0 **** 0.0
8998 H 1.301927 1.308021 0.780437 H 0.0 **** 0.0
8999 H 2.023736 2.519288 1.331543 H 0.0 **** 0.0
9000 M 1.314269 2.160689 0.969565 M 0.0 **** 0.0
9001 O 4.945539 10.421931 19.131231 O 0.0 **** 0.0
9002 H 4.994999 11.158133 18.521486 H 0.0 **** 0.0
9003 H 5.76724 9.948135 19.00257 H 0.0 **** 0.0
9004 M 5.057059 10.455522 19.036706 M 0.0 **** 0.0
9005 O 0.516067 40.822713 17.066024 O 0.0 **** 0.0
9006 H 0.001285 41.416437 16.519472 H 0.0 **** 0.0
9007 H -0.003933 40.718479 17.86287 H 0.0 **** 0.0
9008 M 0.383602 40.885374 17.098065 M 0.0 **** 0.0
9009 O 0.207765 34.449848 46.384745 O 0.0 **** 0.0
9010 H 0.001841 35.116483 45.729443 H 0.0 **** 0.0
9011 H 0.00039 33.619612 45.955871 H 0.0 **** 0.0
9012 M 0.154858 34.428905 46.245957 M 0.0 **** 0.0
9013 O 26.049536 9.364404 10.639543 O 0.0 **** 0.0
9014 H 25.705067 10.248133 10.768353 H 0.0 **** 0.0
9015 H 25.462572 8.969668 9.994651 H 0.0 **** 0.0
9016 M 25.930301 9.427001 10.573478 M 0.0 **** 0.0
9017 O 13.621738 39.688372 3.944552 O 0.0 **** 0.0
9018 H 13.738411 39.358312 4.835437 H 0.0 **** 0.0
9019 H 12.759524 40.103984 3.953595 H 0.0 **** 0.0
9020 M 13.526299 39.699324 4.059754 M 0.0 **** 0.0
9021 O 44.977954 16.284016 44.509507 O 0.0 **** 0.0
9022 H 44.837151 16.540669 45.420842 H 0.0 **** 0.0
9023 H 44.13723 15.922087 44.229473 H 0.0 **** 0.0
9024 M 44.852306 16.270539 44.590321 M 0.0 **** 0.0
9025 O 47.382038 42.484108 39.629304 O 0.0 **** 0.0
9026 H 46.568148 42.154605 39.2482 H 0.0 **** 0.0
9027 H 47.958689 41.720744 39.660576 H 0.0 **** 0.0
9028 M 47.351668 42.344207 39.584521 M 0.0 **** 0.0
9029 O 42.093464 35.245937 12.566855 O 0.0 **** 0.0
9030 H 42.82202 35.84438 12.401631 H 0.0 **** 0.0
9031 H 41.968141 35.27651 13.515321 H 0.0 **** 0.0
9032 M 42.170685 35.326459 12.667119 M 0.0 **** 0.0
9033 O 41.269957 14.037797 16.852444 O 0.0 **** 0.0
9034 H 40.631574 14.463426 17.424751 H 0.0 **** 0.0
9035 H 41.42497 13.184869 17.258294 H 0.0 **** 0.0
9036 M 41.20808 13.983097 16.97766 M 0.0 **** 0.0
9037 O 35.513335 11.531002 21.129976 O 0.0 **** 0.0
9038 H 34.740385 11.994209 20.80715 H 0.0 **** 0.0
9039 H 36.192817 11.717359 20.482053 H 0.0 **** 0.0
9040 M 35.50137 11.614154 21.005708 M 0.0 **** 0.0
9041 O 29.113583 3.671273 44.131629 O 0.0 **** 0.0
9042 H 28.951864 4.167096 43.328987 H 0.0 **** 0.0
9043 H 28.240858 3.458099 44.461986 H 0.0 **** 0.0
9044 M 28.981161 3.707455 44.071171 M 0.0 **** 0.0
9045 O 13.561872 41.916564 36.965727 O 0.0 **** 0.0
9046 H 13.797458 41.749528 37.87832 H 0.0 **** 0.0
9047 H 13.83009 42.822214 36.810532 H 0.0 **** 0.0
9048 M 13.626365 42.011116 37.062683 M 0.0 **** 0.0
9049 O 24.502469 42.170715 27.14785 O 0.0 **** 0.0
9050 H 24.162872 43.061013 27.238805 H 0.0 **** 0.0
9051 H 25.392658 42.2862 26.8155 H 0.0 **** 0.0
9052 M 24.572952 42.299468 27.116948 M 0.0 **** 0.0
9053 O 23.728244 33.278962 32.526754 O 0.0 **** 0.0
9054 H 23.465826 32.362548 32.439857 H 0.0 **** 0.0
9055 H 23.0802 33.763675 32.015558 H 0.0 **** 0.0
9056 M 23.611693 33.223699 32.450191 M 0.0 **** 0.0
9057 O 7.937084 23.645331 22.161121 O 0.0 **** 0.0
9058 H 7.223882 24.275471 22.263568 H 0.0 **** 0.0
9059 H 8.712157 24.183931 22.001748 H 0.0 **** 0.0
9060 M 7.945004 23.794944 22.153834 M 0.0 **** 0.0
9061 O 31.246213 11.165702 36.330174 O 0.0 **** 0.0
9062 H 30.945751 10.304396 36.040167 H 0.0 **** 0.0
9063 H 30.844078 11.282895 37.190861 H 0.0 **** 0.0
9064 M 31.156271 11.070446 36.403228 M 0.0 **** 0.0
9065 O 13.203024 18.189086 12.893829 O 0.0 **** 0.0
9066 H 13.983425 18.412554 13.401042 H 0.0 **** 0.0
9067 H 13.331557 18.624697 12.051243 H 0.0 **** 0.0
9068 M 13.319379 18.273456 12.850897 M 0.0 **** 0.0
9069 O 2.524679 21.303771 14.58117 O 0.0 **** 0.0
9070 H 2.414735 20.454758 15.009328 H 0.0 **** 0.0
9071 H 3.472426 21.410801 14.500245 H 0.0 **** 0.0
9072 M 2.631928 21.208788 14.62562 M 0.0 **** 0.0
9073 O 38.268222 -0.018472 4.849062 O 0.0 **** 0.0
9074 H 38.942238 0.64731 4.712444 H 0.0 **** 0.0
9075 H 37.546218 0.452749 5.264862 H 0.0 **** 0.0
9076 M 38.262079 0.127079 4.884801 M 0.0 **** 0.0
9077 O 6.648004 30.355938 22.663218 O 0.0 **** 0.0
9078 H 6.355116 30.29562 23.572507 H 0.0 **** 0.0
9079 H 7.530778 30.721731 22.719197 H 0.0 **** 0.0
9080 M 6.723517 30.395043 22.786785 M 0.0 **** 0.0
9081 O 30.809611 17.490279 28.08862 O 0.0 **** 0.0
9082 H 30.691618 17.371507 27.146177 H 0.0 **** 0.0
9083 H 31.423011 16.800695 28.342476 H 0.0 **** 0.0
9084 M 30.873029 17.386799 28.000472 M 0.0 **** 0.0
9085 O 15.013479 25.101846 33.291018 O 0.0 **** 0.0
9086 H 15.019199 24.463247 32.578005 H 0.0 **** 0.0
9087 H 15.449882 24.655369 34.016579 H 0.0 **** 0.0
9088 M 15.070076 24.962943 33.292624 M 0.0 **** 0.0
9089 O 23.229984 25.122871 13.537646 O 0.0 **** 0.0
9090 H 24.186539 25.111268 13.504531 H 0.0 **** 0.0
9091 H 23.002006 24.413063 14.138001 H 0.0 **** 0.0
9092 M 23.323251 25.030522 13.61026 M 0.0 **** 0.0
9093 O 31.545873 32.724279 26.042152 O 0.0 **** 0.0
9094 H 31.214046 33.608285 26.199162 H 0.0 **** 0.0
9095 H 30.787565 32.155872 26.176731 H 0.0 **** 0.0
9096 M 31.406322 32.764679 26.079479 M 0.0 **** 0.0
9097 O 19.450174 25.560743 14.702721 O 0.0 **** 0.0
9098 H 18.624804 25.706822 14.240492 H 0.0 **** 0.0
9099 H 19.533244 26.312783 15.289035 H 0.0 **** 0.0
9100 M 19.35515 25.675714 14.718605 M 0.0 **** 0.0
9101 O 35.157301 7.196291 35.340015 O 0.0 **** 0.0
9102 H 34.749876 6.679756 36.035302 H 0.0 **** 0.0
9103 H 36.023386 7.418132 35.681939 H 0.0 **** 0.0
9104 M 35.216016 7.158566 35.472791 M 0.0 **** 0.0
9105 O 37.586377 42.209389 7.398442 O 0.0 **** 0.0
9106 H 36.736765 41.922538 7.063622 H 0.0 **** 0.0
9107 H 37.699224 43.090929 7.04294 H 0.0 **** 0.0
9108 M 37.492062 42.285517 7.310072 M 0.0 **** 0.0
9109 O 37.108702 28.341706 22.558572 O 0.0 **** 0.0
9110 H 36.209349 28.01412 22.549674 H 0.0 **** 0.0
9111 H 37.016954 29.294253 22.58011 H 0.0 **** 0.0
9112 M 36.981829 28.421709 22.56019 M 0.0 **** 0.0
9113 O 45.729776 3.848398 44.117693 O 0.0 **** 0.0
9114 H 45.797475 2.941513 44.416365 H 0.0 **** 0.0
9115 H 46.636284 4.125732 43.985181 H 0.0 **** 0.0
9116 M 45.854487 3.767808 44.138964 M 0.0 **** 0.0
9117 O 2.086386 1.784166 18.296708 O 0.0 **** 0.0
9118 H 1.286981 1.278972 18.148519 H 0.0 **** 0.0
9119 H 2.768609 1.123786 18.417944 H 0.0 **** 0.0
9120 M 2.071385 1.634958 18.293258 M 0.0 **** 0.0
9121 O 0.328368 8.959178 34.988109 O 0.0 **** 0.0
9122 H 1.205234 8.783533 35.329406 H 0.0 **** 0.0
9123 H -0.005314 9.668524 35.537394 H 0.0 **** 0.0
9124 M 0.397903 9.027499 35.102115 M 0.0 **** 0.0
9125 O 38.874219 16.841342 20.176977 O 0.0 **** 0.0
9126 H 39.637623 17.411279 20.269791 H 0.0 **** 0.0
9127 H 38.307213 17.078247 20.910877 H 0.0 **** 0.0
9128 M 38.899361 16.944628 20.282807 M 0.0 **** 0.0
9129 O 39.933746 44.393927 48.016434 O 0.0 **** 0.0
9130 H 39.140545 43.905301 47.79665 H 0.0 **** 0.0
9131 H 39.717903 45.304651 47.815878 H 0.0 **** 0.0
9132 M 39.804576 44.447961 47.962625 M 0.0 **** 0.0
9133 O 15.74199 42.841196 4.086346 O 0.0 **** 0.0
9134 H 15.802546 43.41043 4.853505 H 0.0 **** 0.0
9135 H 16.523615 42.290695 4.133682 H 0.0 **** 0.0
9136 M 15.8498 42.843594 4.190611 M 0.0 **** 0.0
9137 O 39.073204 17.570864 33.664818 O 0.0 **** 0.0
9138 H 38.81303 17.115929 34.465799 H 0.0 **** 0.0
9139 H 39.988834 17.808788 33.81057 H 0.0 **** 0.0
9140 M 39.157111 17.543084 33.786011 M 0.0 **** 0.0
9141 O 9.903209 13.047371 30.491118 O 0.0 **** 0.0
9142 H 9.692763 13.415368 31.349325 H 0.0 **** 0.0
9143 H 9.994437 12.107661 30.648761 H 0.0 **** 0.0
9144 M 9.887947 12.974185 30.621159 M 0.0 **** 0.0
9145 O 9.779716 18.376673 28.434744 O 0.0 **** 0.0
9146 H 10.735646 18.364035 28.482361 H 0.0 **** 0.0
9147 H 9.498677 18.619655 29.316903 H 0.0 **** 0.0
9148 M 9.86611 18.40616 28.553767 M 0.0 **** 0.0
9149 O 36.217066 0.585503 43.748787 O 0.0 **** 0.0
9150 H 36.974199 -5.2e-05 43.758949 H 0.0 **** 0.0
9151 H 35.461549 2.4e-05 43.697425 H 0.0 **** 0.0
9152 M 36.217272 0.435596 43.743513 M 0.0 **** 0.0
9153 O 15.578179 35.496618 32.507027 O 0.0 **** 0.0
9154 H 16.478359 35.172072 32.483069 H 0.0 **** 0.0
9155 H 15.03757 34.707371 32.474458 H 0.0 **** 0.0
9156 M 15.624208 35.354038 32.499791 M 0.0 **** 0.0
9157 O 21.842769 6.815544 33.653722 O 0.0 **** 0.0
9158 H 21.938134 5.884579 33.452628 H 0.0 **** 0.0
9159 H 20.899208 6.94495 33.749511 H 0.0 **** 0.0
9160 M 21.734189 6.712935 33.640241 M 0.0 **** 0.0
9161 O 26.508444 7.435019 30.630446 O 0.0 **** 0.0
9162 H 27.002874 7.919717 29.969511 H 0.0 **** 0.0
9163 H 25.73768 7.111445 30.164128 H 0.0 **** 0.0
9164 M 26.47307 7.455645 30.486144 M 0.0 **** 0.0
9165 O 5.17085 15.15804 37.948377 O 0.0 **** 0.0
9166 H 5.628576 14.317601 37.96783 H 0.0 **** 0.0
9167 H 5.741006 15.73 37.434556 H 0.0 **** 0.0
9168 M 5.302432 15.123671 37.885092 M 0.0 **** 0.0
9169 O 16.305407 41.915118 11.265467 O 0.0 **** 0.0
9170 H 16.808774 42.711433 11.09596 H 0.0 **** 0.0
9171 H 16.958865 41.215749 11.275671 H 0.0 **** 0.0
9172 M 16.453495 41.927529 11.245074 M 0.0 **** 0.0
9173 O 9.312298 41.069286 36.618475 O 0.0 **** 0.0
9174 H 8.899327 41.932049 36.654857 H 0.0 **** 0.0
9175 H 8.773524 40.521083 37.188936 H 0.0 **** 0.0
9176 M 9.190462 41.109554 36.696159 M 0.0 **** 0.0
9177 O 36.196509 38.395057 13.176907 O 0.0 **** 0.0
9178 H 35.547418 37.691737 13.161089 H 0.0 **** 0.0
9179 H 37.033631 37.946423 13.296002 H 0.0 **** 0.0
9180 M 36.220579 38.247593 13.190128 M 0.0 **** 0.0
9181 O 20.86268 24.04762 37.603519 O 0.0 **** 0.0
9182 H 21.667214 24.00196 37.086926 H 0.0 **** 0.0
9183 H 20.438146 24.855769 37.315605 H 0.0 **** 0.0
9184 M 20.911325 24.145228 37.500532 M 0.0 **** 0.0
9185 O 43.477511 33.024243 12.804792 O 0.0 **** 0.0
9186 H 43.160711 33.257625 13.677374 H 0.0 **** 0.0
9187 H 42.685527 32.812796 12.310546 H 0.0 **** 0.0
9188 M 43.335573 33.027051 12.853224 M 0.0 **** 0.0
9189 O 25.596742 12.635158 23.943162 O 0.0 **** 0.0
9190 H 24.65658 12.677996 23.768551 H 0.0 **** 0.0
9191 H 25.973648 12.274083 23.140794 H 0.0 **** 0.0
9192 M 25.524638 12.59442 23.818097 M 0.0 **** 0.0
9193 O 23.533677 14.819092 37.494121 O 0.0 **** 0.0
9194 H 22.804812 15.343145 37.161927 H 0.0 **** 0.0
9195 H 24.234372 15.452803 37.647958 H 0.0 **** 0.0
9196 M 23.530071 14.9673 37.471289 M 0.0 **** 0.0
9197 O 8.404077 15.699014 38.436492 O 0.0 **** 0.0
9198 H 7.852625 16.32847 37.971824 H 0.0 **** 0.0
9199 H 9.228219 16.163573 38.582107 H 0.0 **** 0.0
9200 M 8.438985 15.839062 38.395649 M 0.0 **** 0.0
9201 O 30.47741 14.539078 20.849264 O 0.0 **** 0.0
9202 H 29.769344 13.895285 20.829225 H 0.0 **** 0.0
9203 H 31.267234 14.033165 20.658319 H 0.0 **** 0.0
9204 M 30.487876 14.391901 20.822255 M 0.0 **** 0.0
9205 O 4.108538 0.403728 43.309879 O 0.0 **** 0.0
9206 H 4.055596 1.312 43.012444 H 0.0 **** 0.0
9207 H 3.300438 3.2e-05 42.993286 H 0.0 **** 0.0
9208 M 3.998314 0.46832 43.231276 M 0.0 **** 0.0
9209 O 26.603802 39.883677 41.761984 O 0.0 **** 0.0
9210 H 26.451134 39.125158 42.325517 H 0.0 **** 0.0
9211 H 27.519976 39.804699 41.496245 H 0.0 **** 0.0
9212 M 26.701541 39.776467 41.800105 M 0.0 **** 0.0
9213 O 32.821508 5.997722 15.404464 O 0.0 **** 0.0
9214 H 33.300348 6.824798 15.458181 H 0.0 **** 0.0
9215 H 33.503496 5.329611 15.335542 H 0.0 **** 0.0
9216 M 32.970109 6.018071 15.402517 M 0.0 **** 0.0
9217 O 26.129215 0.795802 23.255185 O 0.0 **** 0.0
9218 H 26.914814 1.334228 23.159473 H 0.0 **** 0.0
9219 H 25.405761 1.422443 23.242356 H 0.0 **** 0.0
9220 M 26.13717 0.944946 23.24129 M 0.0 **** 0.0
9221 O 38.707427 28.558054 11.887593 O 0.0 **** 0.0
9222 H 37.842645 28.158585 11.981427 H 0.0 **** 0.0
9223 H 38.572092 29.282654 11.276964 H 0.0 **** 0.0
9224 M 38.579399 28.599675 11.821437 M 0.0 **** 0.0
9225 O 43.183834 12.004033 9.60003 O 0.0 **** 0.0
9226 H 43.309044 11.074208 9.410356 H 0.0 **** 0.0
9227 H 42.390755 12.242231 9.119908 H 0.0 **** 0.0
9228 M 43.098338 11.915496 9.514288 M 0.0 **** 0.0
9229 O 1.009796 5.515453 15.4208 O 0.0 **** 0.0
9230 H 0.483474 5.870565 16.137116 H 0.0 **** 0.0
9231 H 1.087689 4.582432 15.619882 H 0.0 **** 0.0
9232 M 0.952391 5.441473 15.537982 M 0.0 **** 0.0
9233 O 14.615387 26.873778 13.458928 O 0.0 **** 0.0
9234 H 15.495024 26.517373 13.334662 H 0.0 **** 0.0
9235 H 14.623367 27.227973 14.348147 H 0.0 **** 0.0
9236 M 14.729013 26.873495 13.556852 M 0.0 **** 0.0
9237 O 41.775824 12.869081 34.4248 O 0.0 **** 0.0
9238 H 41.84103 11.96585 34.734881 H 0.0 **** 0.0
9239 H 42.631738 13.052189 34.037358 H 0.0 **** 0.0
9240 M 41.893739 12.776896 34.414897 M 0.0 **** 0.0
9241 O 17.736939 44.394349 28.00989 O 0.0 **** 0.0
9242 H 16.955597 43.850232 27.911549 H 0.0 **** 0.0
9243 H 17.403132 45.291062 28.036517 H 0.0 **** 0.0
9244 M 17.594186 44.439486 28.00071 M 0.0 **** 0.0
9245 O 18.785275 45.597976 23.921123 O 0.0 **** 0.0
9246 H 18.122115 45.660721 23.233729 H 0.0 **** 0.0
9247 H 19.42147 46.27932 23.703737 H 0.0 **** 0.0
9248 M 18.781823 45.693229 23.8053 M 0.0 **** 0.0
9249 O 25.275629 41.145156 8.957159 O 0.0 **** 0.0
9250 H 24.554168 40.655428 9.351986 H 0.0 **** 0.0
9251 H 25.573683 41.734049 9.650411 H 0.0 **** 0.0
9252 M 25.221428 41.157851 9.096447 M 0.0 **** 0.0
9253 O 38.331485 15.884281 44.802704 O 0.0 **** 0.0
9254 H 38.428881 15.813452 43.853112 H 0.0 **** 0.0
9255 H 37.427328 15.619349 44.971641 H 0.0 **** 0.0
9256 M 38.22821 15.841299 44.70277 M 0.0 **** 0.0
9257 O 26.215081 16.207308 12.159043 O 0.0 **** 0.0
9258 H 25.365707 16.49066 11.820657 H 0.0 **** 0.0
9259 H 26.364617 16.760484 12.925766 H 0.0 **** 0.0
9260 M 26.125493 16.314394 12.213876 M 0.0 **** 0.0
9261 O 48.009809 30.169451 42.491522 O 0.0 **** 0.0
9262 H 47.398732 30.078917 41.760347 H 0.0 **** 0.0
9263 H 47.969464 31.096969 42.724571 H 0.0 **** 0.0
9264 M 47.926418 30.276595 42.427755 M 0.0 **** 0.0
9265 O 16.2037 6.929393 29.382555 O 0.0 **** 0.0
9266 H 16.672985 6.806006 30.207647 H 0.0 **** 0.0
9267 H 16.501359 7.780852 29.062172 H 0.0 **** 0.0
9268 M 16.301878 7.022596 29.447164 M 0.0 **** 0.0
9269 O 20.371196 25.202439 44.989466 O 0.0 **** 0.0
9270 H 19.646577 24.884663 44.450788 H 0.0 **** 0.0
9271 H 19.949123 25.697262 45.691772 H 0.0 **** 0.0
9272 M 20.224405 25.225104 45.010413 M 0.0 **** 0.0
9273 O 30.60019 23.787099 31.151405 O 0.0 **** 0.0
9274 H 30.045453 24.528046 30.907493 H 0.0 **** 0.0
9275 H 31.491835 24.133625 31.117977 H 0.0 **** 0.0
9276 M 30.643318 23.92631 31.115902 M 0.0 **** 0.0
9277 O 47.729039 39.729206 28.247724 O 0.0 **** 0.0
9278 H 47.779664 40.35697 27.526906 H 0.0 **** 0.0
9279 H 46.991819 39.162358 28.020967 H 0.0 **** 0.0
9280 M 47.641146 39.737004 28.126422 M 0.0 **** 0.0
9281 O 9.243866 31.054121 42.933239 O 0.0 **** 0.0
9282 H 9.410198 30.968256 41.994522 H 0.0 **** 0.0
9283 H 10.078806 30.83351 43.346077 H 0.0 **** 0.0
9284 M 9.372042 31.014888 42.86592 M 0.0 **** 0.0
9285 O 29.839572 25.64097 15.567577 O 0.0 **** 0.0
9286 H 29.799165 25.607775 16.523346 H 0.0 **** 0.0
9287 H 29.194391 24.9961 15.277555 H 0.0 **** 0.0
9288 M 29.751808 25.554169 15.652801 M 0.0 **** 0.0
9289 O 17.841638 9.368063 47.71149 O 0.0 **** 0.0
9290 H 17.342617 9.056528 46.956406 H 0.0 **** 0.0
9291 H 18.475016 8.671551 47.8845 H 0.0 **** 0.0
9292 M 17.858837 9.239021 47.636977 M 0.0 **** 0.0
9293 O 13.235929 3.183733 14.577303 O 0.0 **** 0.0
9294 H 12.765613 2.913348 13.788682 H 0.0 **** 0.0
9295 H 13.565957 4.058438 14.371872 H 0.0 **** 0.0
9296 M 13.21797 3.261094 14.450052 M 0.0 **** 0.0
9297 O 12.927287 27.507078 2.09073 O 0.0 **** 0.0
9298 H 12.788993 28.413967 2.363962 H 0.0 **** 0.0
9299 H 12.14552 27.287218 1.584045 H 0.0 **** 0.0
9300 M 12.809507 27.595026 2.060845 M 0.0 **** 0.0
9301 O 10.570198 13.200445 -0.004529 O 0.0 **** 0.0
9302 H 9.618147 13.221844 0.092265 H 0.0 **** 0.0
9303 H 10.885808 12.813383 0.812051 H 0.0 **** 0.0
9304 M 10.488726 13.153636 0.112394 M 0.0 **** 0.0
9305 O 29.598932 28.483618 21.300461 O 0.0 **** 0.0
9306 H 28.95677 29.102868 20.953495 H 0.0 **** 0.0
9307 H 30.446898 28.881274 21.102848 H 0.0 **** 0.0
9308 M 29.625277 28.613794 21.230748 M 0.0 **** 0.0
9309 O 5.159265 40.522916 21.548324 O 0.0 **** 0.0
9310 H 5.154838 40.624426 20.596534 H 0.0 **** 0.0
9311 H 4.284298 40.797172 21.822997 H 0.0 **** 0.0
9312 M 5.046691 40.571019 21.461645 M 0.0 **** 0.0
9313 O 43.860867 20.389341 15.952835 O 0.0 **** 0.0
9314 H 43.752507 21.261765 16.331469 H 0.0 **** 0.0
9315 H 44.808699 20.268031 15.896904 H 0.0 **** 0.0
9316 M 43.96833 20.485493 15.994145 M 0.0 **** 0.0
9317 O 0.853817 9.60891 38.027083 O 0.0 **** 0.0
9318 H 0.054716 9.207081 37.686203 H 0.0 **** 0.0
9319 H 1.131248 10.213075 37.338429 H 0.0 **** 0.0
9320 M 0.787037 9.634811 37.89529 M 0.0 **** 0.0
9321 O 4.447123 30.226652 -0.049774 O 0.0 **** 0.0
9322 H 4.774891 29.44897 0.4019 H 0.0 **** 0.0
9323 H 4.564014 30.937422 0.580599 H 0.0 **** 0.0
9324 M 4.504045 30.218086 0.088742 M 0.0 **** 0.0
9325 O 20.172475 25.136826 29.709629 O 0.0 **** 0.0
9326 H 21.030662 25.330216 30.086914 H 0.0 **** 0.0
9327 H 19.580257 25.110799 30.46118 H 0.0 **** 0.0
9328 M 20.206523 25.15825 29.854134 M 0.0 **** 0.0
9329 O 37.821732 31.5902 32.764055 O 0.0 **** 0.0
9330 H 38.753126 31.409891 32.891428 H 0.0 **** 0.0
9331 H 37.442747 30.742472 32.53177 H 0.0 **** 0.0
9332 M 37.892448 31.458598 32.750625 M 0.0 **** 0.0
9333 O 25.123687 19.291148 16.562518 O 0.0 **** 0.0
9334 H 24.5683 20.053862 16.401143 H 0.0 **** 0.0
9335 H 25.98337 19.544906 16.22669 H 0.0 **** 0.0
9336 M 25.16264 19.421269 16.49887 M 0.0 **** 0.0
9337 O 21.779867 19.425442 35.021296 O 0.0 **** 0.0
9338 H 21.479362 20.284809 35.316952 H 0.0 **** 0.0
9339 H 22.031132 18.969621 35.824615 H 0.0 **** 0.0
9340 M 21.773564 19.477101 35.161978 M 0.0 **** 0.0
9341 O 25.80189 36.65193 42.136671 O 0.0 **** 0.0
9342 H 24.903197 36.73854 41.818741 H 0.0 **** 0.0
9343 H 26.196112 35.992858 41.56532 H 0.0 **** 0.0
9344 M 25.737311 36.578647 42.022831 M 0.0 **** 0.0
9345 O 30.268335 40.991658 11.979449 O 0.0 **** 0.0
9346 H 30.874281 40.388885 12.410405 H 0.0 **** 0.0
9347 H 30.783814 41.389241 11.27771 H 0.0 **** 0.0
9348 M 30.411891 40.965391 11.944786 M 0.0 **** 0.0
9349 O 16.401766 35.549813 10.191416 O 0.0 **** 0.0
9350 H 15.487121 35.561662 9.909436 H 0.0 **** 0.0
9351 H 16.703258 36.449585 10.06595 H 0.0 **** 0.0
9352 M 16.323274 35.666512 10.139258 M 0.0 **** 0.0
9353 O 8.869048 8.074948 25.19328 O 0.0 **** 0.0
9354 H 9.136307 7.25151 25.601631 H 0.0 **** 0.0
9355 H 9.349548 8.099514 24.365787 H 0.0 **** 0.0
9356 M 8.96477 7.972683 25.139624 M 0.0 **** 0.0
9357 O 38.465862 18.439965 6.621845 O 0.0 **** 0.0
9358 H 38.756234 18.252152 5.729299 H 0.0 **** 0.0
9359 H 38.746914 17.679485 7.130676 H 0.0 **** 0.0
9360 M 38.539012 18.318572 6.572725 M 0.0 **** 0.0
9361 O 13.384402 2.417087 0.763084 O 0.0 **** 0.0
9362 H 13.307812 2.254828 1.703315 H 0.0 **** 0.0
9363 H 12.540843 2.143489 0.402832 H 0.0 **** 0.0
9364 M 13.266611 2.361292 0.837329 M 0.0 **** 0.0
9365 O 13.17189 26.885881 31.379595 O 0.0 **** 0.0
9366 H 13.636176 26.048892 31.368791 H 0.0 **** 0.0
9367 H 13.865805 27.54515 31.388212 H 0.0 **** 0.0
9368 M 13.320154 26.86313 31.379315 M 0.0 **** 0.0
9369 O 22.585475 43.318579 44.718087 O 0.0 **** 0.0
9370 H 22.088222 43.521797 43.92583 H 0.0 **** 0.0
9371 H 23.4556 43.682749 44.555325 H 0.0 **** 0.0
9372 M 22.633207 43.391212 44.595832 M 0.0 **** 0.0
9373 O 39.39488 31.762164 37.404027 O 0.0 **** 0.0
9374 H 39.691294 31.75289 36.493928 H 0.0 **** 0.0
9375 H 38.777486 31.033054 37.462785 H 0.0 **** 0.0
9376 M 39.353791 31.667642 37.295045 M 0.0 **** 0.0
9377 O 29.575954 37.928684 7.37963 O 0.0 **** 0.0
9378 H 29.544593 37.57194 6.491948 H 0.0 **** 0.0
9379 H 28.762801 38.426007 7.467276 H 0.0 **** 0.0
9380 M 29.467846 37.94668 7.277215 M 0.0 **** 0.0
9381 O 42.230531 14.516037 3.940834 O 0.0 **** 0.0
9382 H 41.283819 14.401371 4.023393 H 0.0 **** 0.0
9383 H 42.581447 13.625495 3.945482 H 0.0 **** 0.0
9384 M 42.154262 14.387358 3.951998 M 0.0 **** 0.0
9385 O 6.541915 38.716465 29.103308 O 0.0 **** 0.0
9386 H 5.700792 39.051083 29.414389 H 0.0 **** 0.0
9387 H 6.810755 39.336191 28.425154 H 0.0 **** 0.0
9388 M 6.468656 38.838633 29.056318 M 0.0 **** 0.0
9389 O 1.6424 6.694613 24.975105 O 0.0 **** 0.0
9390 H 1.458832 7.532174 24.549637 H 0.0 **** 0.0
9391 H 2.491247 6.427328 24.62262 H 0.0 **** 0.0
9392 M 1.727564 6.767615 24.875517 M 0.0 **** 0.0
9393 O 34.599128 32.885201 44.16633 O 0.0 **** 0.0
9394 H 35.487234 33.170409 44.381162 H 0.0 **** 0.0
9395 H 34.034191 33.571578 44.521239 H 0.0 **** 0.0
9396 M 34.640498 33.009576 44.239264 M 0.0 **** 0.0
9397 O 42.321857 19.427642 0.223291 O 0.0 **** 0.0
9398 H 41.456648 19.759852 -0.016038 H 0.0 **** 0.0
9399 H 42.249094 19.217336 1.154261 H 0.0 **** 0.0
9400 M 42.201785 19.443247 0.311829 M 0.0 **** 0.0
9401 O 5.532721 9.821562 1.848164 O 0.0 **** 0.0
9402 H 4.922681 10.24226 1.242283 H 0.0 **** 0.0
9403 H 5.117551 8.987013 2.065856 H 0.0 **** 0.0
9404 M 5.401481 9.768584 1.798471 M 0.0 **** 0.0
9405 O 7.522587 40.904836 2.992537 O 0.0 **** 0.0
9406 H 8.423599 41.067637 3.271645 H 0.0 **** 0.0
9407 H 7.003733 41.556175 3.46453 H 0.0 **** 0.0
9408 M 7.571508 41.009056 3.088687 M 0.0 **** 0.0
9409 O 39.598488 13.359539 14.849864 O 0.0 **** 0.0
9410 H 39.702628 14.286452 15.064844 H 0.0 **** 0.0
9411 H 39.815538 12.899288 15.660597 H 0.0 **** 0.0
9412 M 39.639604 13.419277 14.981168 M 0.0 **** 0.0
9413 O 1.935902 19.551481 42.753195 O 0.0 **** 0.0
9414 H 2.834457 19.290797 42.955364 H 0.0 **** 0.0
9415 H 1.604902 18.853453 42.188018 H 0.0 **** 0.0
9416 M 2.008556 19.428754 42.706726 M 0.0 **** 0.0
9417 O 45.709262 13.57366 4.31162 O 0.0 **** 0.0
9418 H 44.753022 13.58591 4.270597 H 0.0 **** 0.0
9419 H 45.935188 12.645204 4.3678 H 0.0 **** 0.0
9420 M 45.615773 13.456374 4.31356 M 0.0 **** 0.0
9421 O 32.737983 33.682323 39.447261 O 0.0 **** 0.0
9422 H 33.521273 33.775757 39.989438 H 0.0 **** 0.0
9423 H 32.468006 32.772285 39.570433 H 0.0 **** 0.0
9424 M 32.803693 33.577788 39.532434 M 0.0 **** 0.0
9425 O 33.10745 16.266673 3.943338 O 0.0 **** 0.0
9426 H 32.375152 16.048484 4.519847 H 0.0 **** 0.0
9427 H 33.81922 15.695958 4.232988 H 0.0 **** 0.0
9428 M 33.104822 16.165683 4.054217 M 0.0 **** 0.0
9429 O 48.015006 21.642348 3.995516 O 0.0 **** 0.0
9430 H 47.663442 22.112145 3.23926 H 0.0 **** 0.0
9431 H 47.556264 22.018954 4.746483 H 0.0 **** 0.0
9432 M 47.911277 21.750699 3.994839 M 0.0 **** 0.0
9433 O 0.000227 41.131208 25.364312 O 0.0 **** 0.0
9434 H 0.011481 41.134252 24.407185 H 0.0 **** 0.0
9435 H 0.80223 41.589543 25.615208 H 0.0 **** 0.0
9436 M 0.104334 41.19027 25.273906 M 0.0 **** 0.0
9437 O 9.319022 4.670177 34.448835 O 0.0 **** 0.0
9438 H 8.86779 3.848627 34.642932 H 0.0 **** 0.0
9439 H 10.124217 4.402836 34.005644 H 0.0 **** 0.0
9440 M 9.364333 4.530785 34.416948 M 0.0 **** 0.0
9441 O 41.92021 34.476099 42.9192 O 0.0 **** 0.0
9442 H 42.251842 35.357221 43.09204 H 0.0 **** 0.0
9443 H 41.841527 34.431929 41.966264 H 0.0 **** 0.0
9444 M 41.952591 34.583239 42.819338 M 0.0 **** 0.0
9445 O 23.39333 46.727707 -0.002136 O 0.0 **** 0.0
9446 H 23.108505 47.599539 0.271749 H 0.0 **** 0.0
9447 H 24.30686 46.67445 0.278676 H 0.0 **** 0.0
9448 M 23.473812 46.832495 0.068872 M 0.0 **** 0.0
9449 O 1.354979 22.444874 16.361759 O 0.0 **** 0.0
9450 H 0.743115 23.144207 16.132011 H 0.0 **** 0.0
9451 H 2.217239 22.858908 16.325546 H 0.0 **** 0.0
9452 M 1.387032 22.587399 16.327712 M 0.0 **** 0.0
9453 O 13.476973 35.479238 37.240603 O 0.0 **** 0.0
9454 H 12.686032 36.014679 37.303397 H 0.0 **** 0.0
9455 H 14.1968 36.100858 37.34861 H 0.0 **** 0.0
9456 M 13.467869 35.627356 37.262468 M 0.0 **** 0.0
9457 O 39.280736 41.984702 29.132566 O 0.0 **** 0.0
9458 H 38.749122 42.78023 29.105201 H 0.0 **** 0.0
9459 H 38.689204 41.290641 28.841709 H 0.0 **** 0.0
9460 M 39.136959 41.997691 29.09183 M 0.0 **** 0.0
9461 O 15.556143 12.035558 3.833654 O 0.0 **** 0.0
9462 H 14.864909 11.4422 3.539798 H 0.0 **** 0.0
9463 H 16.149927 12.101358 3.085776 H 0.0 **** 0.0
9464 M 15.543668 11.968024 3.700299 M 0.0 **** 0.0
9465 O 21.064871 24.308205 8.918319 O 0.0 **** 0.0
9466 H 20.511883 23.592353 9.231349 H 0.0 **** 0.0
9467 H 21.835295 23.873873 8.552217 H 0.0 **** 0.0
9468 M 21.092706 24.160967 8.911525 M 0.0 **** 0.0
9469 O 2.391552 12.714443 26.677287 O 0.0 **** 0.0
9470 H 3.040775 13.202554 26.170843 H 0.0 **** 0.0
9471 H 2.122263 12.001315 26.098356 H 0.0 **** 0.0
9472 M 2.440189 12.685638 26.538345 M 0.0 **** 0.0
9473 O 16.399507 13.369672 45.464527 O 0.0 **** 0.0
9474 H 17.128312 12.926146 45.898528 H 0.0 **** 0.0
9475 H 15.789431 12.666679 45.241285 H 0.0 **** 0.0
9476 M 16.414706 13.222903 45.491507 M 0.0 **** 0.0
9477 O 8.143159 18.133662 23.388517 O 0.0 **** 0.0
9478 H 7.894631 18.251564 22.471695 H 0.0 **** 0.0
9479 H 8.715079 17.366117 23.385337 H 0.0 **** 0.0
9480 M 8.184557 18.0505 23.270745 M 0.0 **** 0.0
9481 O 35.659997 21.636921 25.089122 O 0.0 **** 0.0
9482 H 36.392579 21.182677 25.505314 H 0.0 **** 0.0
9483 H 35.791524 22.558573 25.311576 H 0.0 **** 0.0
9484 M 35.770614 21.696755 25.170877 M 0.0 **** 0.0
9485 O 2.378164 39.350484 34.699382 O 0.0 **** 0.0
9486 H 1.803294 40.098726 34.86028 H 0.0 **** 0.0
9487 H 3.260852 39.720716 34.703673 H 0.0 **** 0.0
9488 M 2.417568 39.493663 34.720528 M 0.0 **** 0.0
9489 O 46.265758 47.09747 43.080281 O 0.0 **** 0.0
9490 H 45.907296 46.235245 42.869802 H 0.0 **** 0.0
9491 H 45.709301 47.422456 43.788073 H 0.0 **** 0.0
9492 M 46.148637 47.028697 43.143943 M 0.0 **** 0.0
9493 O 7.855891 10.538558 2.644192 O 0.0 **** 0.0
9494 H 7.230947 10.093491 3.216546 H 0.0 **** 0.0
9495 H 7.313941 11.089994 2.07989 H 0.0 **** 0.0
9496 M 7.706514 10.552174 2.645223 M 0.0 **** 0.0
9497 O 21.060323 16.470243 29.051311 O 0.0 **** 0.0
9498 H 20.395448 15.781815 29.066692 H 0.0 **** 0.0
9499 H 20.56085 17.286652 29.066514 H 0.0 **** 0.0
9500 M 20.911272 16.486626 29.055226 M 0.0 **** 0.0
9501 O 33.167161 46.677162 45.102935 O 0.0 **** 0.0
9502 H 34.014289 46.234311 45.053074 H 0.0 **** 0.0
9503 H 33.341504 47.472775 45.60576 H 0.0 **** 0.0
9504 M 33.297922 46.72232 45.16092 M 0.0 **** 0.0
9505 O 15.813575 41.406536 35.14011 O 0.0 **** 0.0
9506 H 15.895246 40.655423 35.727807 H 0.0 **** 0.0
9507 H 16.493805 42.013919 35.430975 H 0.0 **** 0.0
9508 M 15.911108 41.388137 35.252577 M 0.0 **** 0.0
9509 O 2.742428 37.216997 35.080191 O 0.0 **** 0.0
9510 H 2.821716 36.72947 35.900106 H 0.0 **** 0.0
9511 H 3.645388 37.407177 34.825782 H 0.0 **** 0.0
9512 M 2.868168 37.178933 35.152583 M 0.0 **** 0.0
9513 O 44.291777 22.950024 18.600382 O 0.0 **** 0.0
9514 H 45.224669 22.754898 18.689077 H 0.0 **** 0.0
9515 H 43.897594 22.60734 19.402514 H 0.0 **** 0.0
9516 M 44.360738 22.881178 18.714419 M 0.0 **** 0.0
9517 O 31.310716 45.216382 47.755962 O 0.0 **** 0.0
9518 H 30.804441 45.590115 47.034687 H 0.0 **** 0.0
9519 H 31.919023 45.911292 48.007541 H 0.0 **** 0.0
9520 M 31.323778 45.353182 47.695835 M 0.0 **** 0.0
9521 O 20.614458 0.842488 31.467264 O 0.0 **** 0.0
9522 H 20.179864 0.001048 31.606319 H 0.0 **** 0.0
9523 H 21.534599 0.617503 31.329607 H 0.0 **** 0.0
9524 M 20.676614 0.705972 31.467443 M 0.0 **** 0.0
9525 O 2.626951 21.946594 26.584753 O 0.0 **** 0.0
9526 H 3.027774 21.296544 27.161819 H 0.0 **** 0.0
9527 H 2.650083 22.760698 27.087672 H 0.0 **** 0.0
9528 M 2.681222 21.967595 26.723004 M 0.0 **** 0.0
9529 O 5.838957 29.734047 14.232885 O 0.0 **** 0.0
9530 H 5.040806 29.566632 14.73404 H 0.0 **** 0.0
9531 H 5.774998 30.65511 13.980334 H 0.0 **** 0.0
9532 M 5.728596 29.830524 14.26471 M 0.0 **** 0.0
9533 O 46.797368 28.447606 40.43477 O 0.0 **** 0.0
9534 H 46.202683 27.849781 40.887741 H 0.0 **** 0.0
9535 H 47.672236 28.122059 40.646555 H 0.0 **** 0.0
9536 M 46.833235 28.329403 40.519867 M 0.0 **** 0.0
9537 O 37.46019 42.985663 17.714724 O 0.0 **** 0.0
9538 H 37.829587 43.018008 18.59718 H 0.0 **** 0.0
9539 H 37.737521 43.806681 17.308222 H 0.0 **** 0.0
9540 M 37.542979 43.094904 17.775652 M 0.0 **** 0.0
9541 O 13.042041 31.561026 37.474261 O 0.0 **** 0.0
9542 H 13.711637 30.877071 37.483022 H 0.0 **** 0.0
9543 H 13.53618 32.380769 37.482996 H 0.0 **** 0.0
9544 M 13.191014 31.578408 37.476501 M 0.0 **** 0.0
9545 O 21.965285 3.633897 13.956556 O 0.0 **** 0.0
9546 H 22.847206 3.868166 14.245627 H 0.0 **** 0.0
9547 H 21.864394 2.717129 14.212651 H 0.0 **** 0.0
9548 M 22.065266 3.546529 14.026344 M 0.0 **** 0.0
9549 O 18.331013 35.046294 24.622477 O 0.0 **** 0.0
9550 H 17.821865 35.801716 24.916302 H 0.0 **** 0.0
9551 H 19.212152 35.39175 24.479354 H 0.0 **** 0.0
9552 M 18.378633 35.18722 24.641769 M 0.0 **** 0.0
9553 O 22.252219 1.579956 4.028574 O 0.0 **** 0.0
9554 H 22.970758 2.15953 3.775541 H 0.0 **** 0.0
9555 H 22.682311 0.828826 4.437296 H 0.0 **** 0.0
9556 M 22.399258 1.557995 4.048504 M 0.0 **** 0.0
9557 O 10.55984 32.588761 31.229867 O 0.0 **** 0.0
9558 H 9.606332 32.672076 31.2194 H 0.0 **** 0.0
9559 H 10.879529 33.461517 31.001123 H 0.0 **** 0.0
9560 M 10.478703 32.71115 31.199245 M 0.0 **** 0.0
9561 O 22.090273 35.474161 11.511824 O 0.0 **** 0.0
9562 H 22.270845 34.936019 10.741093 H 0.0 **** 0.0
9563 H 22.475531 36.325773 11.305521 H 0.0 **** 0.0
9564 M 22.162706 35.514289 11.386751 M 0.0 **** 0.0
9565 O 40.031575 32.425509 26.032531 O 0.0 **** 0.0
9566 H 40.621361 33.17928 26.047039 H 0.0 **** 0.0
9567 H 40.613527 31.66561 26.021888 H 0.0 **** 0.0
9568 M 40.181572 32.424725 26.033026 M 0.0 **** 0.0
9569 O 6.392503 0.142732 33.139385 O 0.0 **** 0.0
9570 H 5.924574 0.970855 33.032224 H 0.0 **** 0.0
9571 H 6.414321 0.000113 34.085647 H 0.0 **** 0.0
9572 M 6.335395 0.230485 33.2468 M 0.0 **** 0.0
9573 O 10.360495 19.056741 35.477107 O 0.0 **** 0.0
9574 H 9.77246 18.379677 35.1424 H 0.0 **** 0.0
9575 H 9.78228 19.682658 35.913139 H 0.0 **** 0.0
9576 M 10.211201 19.050193 35.490078 M 0.0 **** 0.0
9577 O 21.422255 5.084903 19.255464 O 0.0 **** 0.0
9578 H 21.520637 5.086285 20.207592 H 0.0 **** 0.0
9579 H 20.800637 4.378617 19.079452 H 0.0 **** 0.0
9580 M 21.355274 4.994667 19.354816 M 0.0 **** 0.0
9581 O 45.310647 9.203501 26.004111 O 0.0 **** 0.0
9582 H 45.652311 9.486998 26.852123 H 0.0 **** 0.0
9583 H 44.391899 9.471902 26.013657 H 0.0 **** 0.0
9584 M 45.236773 9.274151 26.11389 M 0.0 **** 0.0
9585 O 31.339773 21.856441 26.171113 O 0.0 **** 0.0
9586 H 31.174732 20.921461 26.049445 H 0.0 **** 0.0
9587 H 32.131895 22.028553 25.662046 H 0.0 **** 0.0
9588 M 31.420047 21.758784 26.090371 M 0.0 **** 0.0
9589 O 4.280375 2.668506 34.169361 O 0.0 **** 0.0
9590 H 5.10074 2.34289 34.539772 H 0.0 **** 0.0
9591 H 4.354345 2.493206 33.231264 H 0.0 **** 0.0
9592 M 4.394861 2.604382 34.09669 M 0.0 **** 0.0
9593 O 42.959912 8.192919 38.796212 O 0.0 **** 0.0
9594 H 43.349856 9.0511 38.629782 H 0.0 **** 0.0
9595 H 43.704539 7.592042 38.822766 H 0.0 **** 0.0
9596 M 43.105151 8.225857 38.778306 M 0.0 **** 0.0
9597 O 27.617304 3.905268 21.38276 O 0.0 **** 0.0
9598 H 28.315669 3.672646 21.994643 H 0.0 **** 0.0
9599 H 27.740346 3.312321 20.641476 H 0.0 **** 0.0
9600 M 27.722454 3.799585 21.366195 M 0.0 **** 0.0
9601 O 8.148931 5.146535 11.94587 O 0.0 **** 0.0
9602 H 8.166686 6.01323 12.351769 H 0.0 **** 0.0
9603 H 7.512363 4.65254 12.46257 H 0.0 **** 0.0
9604 M 8.069715 5.194245 12.063975 M 0.0 **** 0.0
9605 O 24.311736 23.651129 18.558008 O 0.0 **** 0.0
9606 H 23.933713 23.57174 19.433807 H 0.0 **** 0.0
9607 H 24.850369 22.866327 18.457064 H 0.0 **** 0.0
9608 M 24.332296 23.540501 18.657199 M 0.0 **** 0.0
9609 O 12.604044 43.425035 7.744102 O 0.0 **** 0.0
9610 H 13.520245 43.284629 7.505167 H 0.0 **** 0.0
9611 H 12.47831 44.370851 7.667604 H 0.0 **** 0.0
9612 M 12.705234 43.528138 7.703723 M 0.0 **** 0.0
9613 O 1.170709 6.785564 30.934821 O 0.0 **** 0.0
9614 H 0.391174 7.340963 30.925543 H 0.0 **** 0.0
9615 H 1.901657 7.399121 31.008934 H 0.0 **** 0.0
9616 M 1.164489 6.935205 30.943121 M 0.0 **** 0.0
9617 O 22.798569 11.172405 33.353462 O 0.0 **** 0.0
9618 H 23.51447 11.52562 33.881623 H 0.0 **** 0.0
9619 H 22.060465 11.756148 33.528606 H 0.0 **** 0.0
9620 M 22.795727 11.292348 33.443494 M 0.0 **** 0.0
9621 O 15.377934 38.80417 25.617202 O 0.0 **** 0.0
9622 H 15.110078 38.696044 26.529776 H 0.0 **** 0.0
9623 H 16.186912 38.297939 25.542946 H 0.0 **** 0.0
9624 M 15.447205 38.725524 25.724517 M 0.0 **** 0.0
9625 O 21.588958 16.468815 0.609141 O 0.0 **** 0.0
9626 H 21.403323 15.753845 0.000383 H 0.0 **** 0.0
9627 H 21.372956 17.26271 0.119955 H 0.0 **** 0.0
9628 M 21.537544 16.478919 0.468591 M 0.0 **** 0.0
9629 O 32.909352 23.097112 14.022712 O 0.0 **** 0.0
9630 H 32.846237 22.16395 14.226312 H 0.0 **** 0.0
9631 H 33.774588 23.354263 14.341255 H 0.0 **** 0.0
9632 M 33.012034 23.010574 14.089553 M 0.0 **** 0.0
9633 O -0.011076 26.088349 44.490054 O 0.0 **** 0.0
9634 H 0.315313 25.597561 45.24426 H 0.0 **** 0.0
9635 H 0.644217 25.943385 43.807555 H 0.0 **** 0.0
9636 M 0.114592 26.006965 44.499234 M 0.0 **** 0.0
9637 O 5.752811 28.342626 27.545471 O 0.0 **** 0.0
9638 H 6.161246 28.763835 26.789169 H 0.0 **** 0.0
9639 H 5.219477 27.641634 27.17078 H 0.0 **** 0.0
9640 M 5.736822 28.30681 27.400689 M 0.0 **** 0.0
9641 O 41.789186 8.168874 24.82527 O 0.0 **** 0.0
9642 H 40.906342 8.48204 24.628441 H 0.0 **** 0.0
9643 H 41.670112 7.249534 25.063731 H 0.0 **** 0.0
9644 M 41.660928 8.091276 24.830599 M 0.0 **** 0.0
9645 O 37.578465 24.422595 16.920077 O 0.0 **** 0.0
9646 H 37.514469 23.78581 16.208292 H 0.0 **** 0.0
9647 H 38.502949 24.413295 17.168012 H 0.0 **** 0.0
9648 M 37.688618 24.339888 16.860699 M 0.0 **** 0.0
9649 O 14.471201 29.831026 9.33713 O 0.0 **** 0.0
9650 H 14.549552 30.737032 9.038392 H 0.0 **** 0.0
9651 H 15.371624 29.507056 9.35972 H 0.0 **** 0.0
9652 M 14.596496 29.905534 9.301779 M 0.0 **** 0.0
9653 O 11.348048 13.06197 41.573117 O 0.0 **** 0.0
9654 H 11.263883 12.176571 41.219262 H 0.0 **** 0.0
9655 H 11.196477 13.635925 40.822231 H 0.0 **** 0.0
9656 M 11.317871 13.022101 41.431696 M 0.0 **** 0.0
9657 O 32.824758 3.12917 48.008696 O 0.0 **** 0.0
9658 H 33.189297 2.415654 47.485023 H 0.0 **** 0.0
9659 H 31.878424 3.060285 47.882457 H 0.0 **** 0.0
9660 M 32.750281 3.029013 47.925499 M 0.0 **** 0.0
9661 O 35.22023 25.018801 24.595132 O 0.0 **** 0.0
9662 H 36.161032 24.845963 24.630445 H 0.0 **** 0.0
9663 H 35.154293 25.968399 24.494407 H 0.0 **** 0.0
9664 M 35.332224 25.118236 24.586759 M 0.0 **** 0.0
9665 O 17.020445 40.177239 23.824503 O 0.0 **** 0.0
9666 H 16.118912 39.855758 23.813675 H 0.0 **** 0.0
9667 H 17.519542 39.477961 24.246569 H 0.0 **** 0.0
9668 M 16.968928 40.046569 23.877147 M 0.0 **** 0.0
9669 O 16.166067 48.001164 11.254285 O 0.0 **** 0.0
9670 H 15.489148 47.988799 10.577634 H 0.0 **** 0.0
9671 H 16.279024 47.082315 11.497567 H 0.0 **** 0.0
9672 M 16.093873 47.881957 11.198808 M 0.0 **** 0.0
9673 O 45.059343 4.058896 1.56956 O 0.0 **** 0.0
9674 H 45.644928 4.039342 0.812634 H 0.0 **** 0.0
9675 H 44.19118 3.884907 1.205901 H 0.0 **** 0.0
9676 M 45.02317 4.03412 1.426111 M 0.0 **** 0.0
9677 O 27.986963 11.407176 28.614959 O 0.0 **** 0.0
9678 H 28.336446 11.03894 27.803483 H 0.0 **** 0.0
9679 H 27.719357 12.295572 28.379653 H 0.0 **** 0.0
9680 M 27.997445 11.473763 28.480957 M 0.0 **** 0.0
9681 O 31.996755 31.825756 44.615147 O 0.0 **** 0.0
9682 H 32.179483 31.856622 45.554236 H 0.0 **** 0.0
9683 H 31.042361 31.867307 44.55487 H 0.0 **** 0.0
9684 M 31.897972 31.835026 44.727646 M 0.0 **** 0.0
9685 O 30.817142 19.722533 21.52252 O 0.0 **** 0.0
9686 H 31.538563 19.97498 22.098758 H 0.0 **** 0.0
9687 H 30.037376 19.780694 22.074616 H 0.0 **** 0.0
9688 M 30.809673 19.762295 21.666961 M 0.0 **** 0.0
9689 O 16.6057 21.027095 24.834115 O 0.0 **** 0.0
9690 H 15.99751 21.404131 25.469865 H 0.0 **** 0.0
9691 H 17.363695 20.762055 25.355101 H 0.0 **** 0.0
9692 M 16.624877 21.041432 24.982192 M 0.0 **** 0.0
9693 O 21.786711 10.623067 42.418194 O 0.0 **** 0.0
9694 H 22.41663 11.301542 42.661303 H 0.0 **** 0.0
9695 H 22.274342 9.803242 42.497767 H 0.0 **** 0.0
9696 M 21.929771 10.604972 42.459501 M 0.0 **** 0.0
9697 O 1.984608 31.464155 26.954708 O 0.0 **** 0.0
9698 H 1.843267 31.67971 27.876547 H 0.0 **** 0.0
9699 H 2.740257 31.992575 26.697811 H 0.0 **** 0.0
9700 M 2.063247 31.559393 27.039829 M 0.0 **** 0.0
9701 O 47.70775 38.45959 46.295404 O 0.0 **** 0.0
9702 H 46.838106 38.16225 46.562867 H 0.0 **** 0.0
9703 H 47.599398 39.395108 46.124244 H 0.0 **** 0.0
9704 M 47.582555 38.541285 46.307732 M 0.0 **** 0.0
9705 O 38.429214 12.795872 24.247829 O 0.0 **** 0.0
9706 H 37.857611 12.084852 23.958087 H 0.0 **** 0.0
9707 H 37.891237 13.583634 24.168836 H 0.0 **** 0.0
9708 M 38.287174 12.805696 24.200626 M 0.0 **** 0.0
9709 O 24.197044 37.672956 26.300202 O 0.0 **** 0.0
9710 H 25.030239 38.075396 26.055136 H 0.0 **** 0.0
9711 H 23.883391 38.199327 27.035581 H 0.0 **** 0.0
9712 M 24.263552 37.791856 26.362968 M 0.0 **** 0.0
9713 O 3.018944 23.186953 37.178685 O 0.0 **** 0.0
9714 H 2.503208 22.381307 37.144334 H 0.0 **** 0.0
9715 H 3.788963 22.956985 37.698699 H 0.0 **** 0.0
9716 M 3.051495 23.054381 37.240856 M 0.0 **** 0.0
9717 O 40.657188 20.094416 25.544711 O 0.0 **** 0.0
9718 H 40.374221 20.989056 25.355564 H 0.0 **** 0.0
9719 H 41.547634 20.045752 25.196908 H 0.0 **** 0.0
9720 M 40.734953 20.202711 25.475975 M 0.0 **** 0.0
9721 O 31.331641 16.968918 22.847795 O 0.0 **** 0.0
9722 H 31.548566 17.809501 22.444569 H 0.0 **** 0.0
9723 H 32.179267 16.555567 23.011806 H 0.0 **** 0.0
9724 M 31.467917 17.023609 22.817172 M 0.0 **** 0.0
9725 O 26.977012 10.937826 4.991495 O 0.0 **** 0.0
9726 H 27.734017 10.586824 5.460505 H 0.0 **** 0.0
9727 H 27.284295 11.767802 4.626877 H 0.0 **** 0.0
9728 M 27.113254 10.99914 5.004858 M 0.0 **** 0.0
9729 O 40.629015 14.720506 34.12297 O 0.0 **** 0.0
9730 H 40.403698 15.436449 34.717012 H 0.0 **** 0.0
9731 H 41.407329 15.029374 33.659228 H 0.0 **** 0.0
9732 M 40.699806 14.851695 34.13965 M 0.0 **** 0.0
9733 O 26.728575 31.628252 4.640676 O 0.0 **** 0.0
9734 H 26.06256 32.223765 4.29714 H 0.0 **** 0.0
9735 H 26.238875 31.003178 5.175191 H 0.0 **** 0.0
9736 M 26.580629 31.624467 4.665124 M 0.0 **** 0.0
9737 O 7.327399 10.902274 36.885395 O 0.0 **** 0.0
9738 H 7.052362 11.52584 37.557517 H 0.0 **** 0.0
9739 H 6.631596 10.245158 36.868532 H 0.0 **** 0.0
9740 M 7.203119 10.897979 36.969276 M 0.0 **** 0.0
9741 O 15.484759 38.02417 4.83506 O 0.0 **** 0.0
9742 H 15.751779 37.802601 5.727157 H 0.0 **** 0.0
9743 H 14.783133 37.404952 4.633771 H 0.0 **** 0.0
9744 M 15.429124 37.916539 4.923492 M 0.0 **** 0.0
9745 O 15.078139 29.324728 0.7143 O 0.0 **** 0.0
9746 H 14.477865 29.540123 0.000504 H 0.0 **** 0.0
9747 H 15.918474 29.1702 0.282806 H 0.0 **** 0.0
9748 M 15.10887 29.33252 0.567689 M 0.0 **** 0.0
9749 O 31.145963 45.411605 19.628698 O 0.0 **** 0.0
9750 H 31.058622 44.496172 19.89437 H 0.0 **** 0.0
9751 H 31.823419 45.765193 20.205116 H 0.0 **** 0.0
9752 M 31.221505 45.339682 19.736496 M 0.0 **** 0.0
9753 O 22.858163 14.676239 47.010958 O 0.0 **** 0.0
9754 H 23.159224 13.76762 47.012383 H 0.0 **** 0.0
9755 H 23.567634 15.164789 47.42833 H 0.0 **** 0.0
9756 M 22.987524 14.622465 47.064569 M 0.0 **** 0.0
9757 O 35.23082 35.571226 0.028107 O 0.0 **** 0.0
9758 H 35.671847 36.420174 -0.003704 H 0.0 **** 0.0
9759 H 34.297985 35.784282 0.002515 H 0.0 **** 0.0
9760 M 35.167863 35.707176 0.020759 M 0.0 **** 0.0
9761 O 34.130598 17.04024 36.880271 O 0.0 **** 0.0
9762 H 34.76792 17.753899 36.853063 H 0.0 **** 0.0
9763 H 33.510883 17.2978 37.562799 H 0.0 **** 0.0
9764 M 34.132852 17.164568 36.96416 M 0.0 **** 0.0
9765 O 3.998356 39.107885 32.714238 O 0.0 **** 0.0
9766 H 3.337818 38.443835 32.911609 H 0.0 **** 0.0
9767 H 4.820324 38.72867 33.025356 H 0.0 **** 0.0
9768 M 4.019021 38.974334 32.779331 M 0.0 **** 0.0
9769 O 30.107055 14.829639 23.153945 O 0.0 **** 0.0
9770 H 29.528131 15.438702 23.612331 H 0.0 **** 0.0
9771 H 29.572211 14.047875 23.01605 H 0.0 **** 0.0
9772 M 29.964479 14.807531 23.194972 M 0.0 **** 0.0
9773 O 29.140738 33.720287 27.705522 O 0.0 **** 0.0
9774 H 29.054176 34.031834 26.804592 H 0.0 **** 0.0
9775 H 29.902533 34.187262 28.048789 H 0.0 **** 0.0
9776 M 29.227176 33.819948 27.634134 M 0.0 **** 0.0
9777 O 29.955225 25.794313 13.376023 O 0.0 **** 0.0
9778 H 29.805358 24.871261 13.171715 H 0.0 **** 0.0
9779 H 29.930962 26.235108 12.526706 H 0.0 **** 0.0
9780 M 29.932934 25.732578 13.241146 M 0.0 **** 0.0
9781 O 23.865975 17.521988 17.362052 O 0.0 **** 0.0
9782 H 24.584525 17.650279 17.98129 H 0.0 **** 0.0
9783 H 23.114275 17.296464 17.910063 H 0.0 **** 0.0
9784 M 23.861731 17.509541 17.511475 M 0.0 **** 0.0
9785 O 42.166378 17.218882 8.493583 O 0.0 **** 0.0
9786 H 41.850025 17.001852 7.61663 H 0.0 **** 0.0
9787 H 42.904469 16.626272 8.635934 H 0.0 **** 0.0
9788 M 42.220366 17.115238 8.399545 M 0.0 **** 0.0
9789 O 34.147068 29.353806 47.987173 O 0.0 **** 0.0
9790 H 33.685945 30.14647 47.712803 H 0.0 **** 0.0
9791 H 34.814751 29.2196 47.314554 H 0.0 **** 0.0
9792 M 34.17351 29.438097 47.865947 M 0.0 **** 0.0
9793 O 9.148048 31.055126 3.746921 O 0.0 **** 0.0
9794 H 8.441515 31.42913 3.220462 H 0.0 **** 0.0
9795 H 9.597566 31.813879 4.11902 H 0.0 **** 0.0
9796 M 9.115147 31.200133 3.727161 M 0.0 **** 0.0
9797 O 45.32242 42.641192 31.305174 O 0.0 **** 0.0
9798 H 44.510022 42.484895 30.82371 H 0.0 **** 0.0
9799 H 45.889808 41.909494 31.062448 H 0.0 **** 0.0
9800 M 45.291056 42.527518 31.212469 M 0.0 **** 0.0
9801 O 45.799432 47.427038 33.476988 O 0.0 **** 0.0
9802 H 45.668076 46.552121 33.842356 H 0.0 **** 0.0
9803 H 45.267739 48.000102 34.029374 H 0.0 **** 0.0
9804 M 45.714553 47.388397 33.594472 M 0.0 **** 0.0
9805 O 29.951561 13.93928 25.155438 O 0.0 **** 0.0
9806 H 29.049968 13.624089 25.092083 H 0.0 **** 0.0
9807 H 29.888533 14.745433 25.667662 H 0.0 **** 0.0
9808 M 29.828078 14.00213 25.212899 M 0.0 **** 0.0
9809 O 38.235034 19.038706 38.270572 O 0.0 **** 0.0
9810 H 38.989253 18.7729 37.744521 H 0.0 **** 0.0
9811 H 37.503315 18.536543 37.911896 H 0.0 **** 0.0
9812 M 38.237914 18.940396 38.157316 M 0.0 **** 0.0
9813 O 2.939875 2.712868 38.545521 O 0.0 **** 0.0
9814 H 2.553331 2.321063 37.762386 H 0.0 **** 0.0
9815 H 2.428266 3.50823 38.693452 H 0.0 **** 0.0
9816 M 2.8249 2.764528 38.464207 M 0.0 **** 0.0
9817 O 35.89144 40.392172 46.124869 O 0.0 **** 0.0
9818 H 36.565715 40.350721 45.446737 H 0.0 **** 0.0
9819 H 35.303696 39.663934 45.923734 H 0.0 **** 0.0
9820 M 35.902517 40.293642 46.012312 M 0.0 **** 0.0
9821 O 24.870842 33.414844 41.847204 O 0.0 **** 0.0
9822 H 24.333216 34.206795 41.847622 H 0.0 **** 0.0
9823 H 25.772149 33.736631 41.865285 H 0.0 **** 0.0
9824 M 24.917397 33.557416 41.849572 M 0.0 **** 0.0
9825 O 18.916586 8.64482 43.573423 O 0.0 **** 0.0
9826 H 19.453152 8.14197 44.186177 H 0.0 **** 0.0
9827 H 19.548363 9.137361 43.049505 H 0.0 **** 0.0
9828 M 19.066149 8.6435 43.584795 M 0.0 **** 0.0
9829 O 23.439322 9.698435 8.334505 O 0.0 **** 0.0
9830 H 23.465478 9.101248 9.082109 H 0.0 **** 0.0
9831 H 22.772244 9.32932 7.755722 H 0.0 **** 0.0
9832 M 23.357276 9.574736 8.356116 M 0.0 **** 0.0
9833 O 42.832645 27.37009 7.956307 O 0.0 **** 0.0
9834 H 42.063214 26.869617 7.684772 H 0.0 **** 0.0
9835 H 43.374914 26.738814 8.429237 H 0.0 **** 0.0
9836 M 42.803566 27.225212 7.982088 M 0.0 **** 0.0
9837 O 10.624972 13.86609 13.634032 O 0.0 **** 0.0
9838 H 9.74145 13.948402 13.275085 H 0.0 **** 0.0
9839 H 10.796306 14.712732 14.046429 H 0.0 **** 0.0
9840 M 10.533803 13.985008 13.640875 M 0.0 **** 0.0
9841 O 37.741255 11.156465 0.94495 O 0.0 **** 0.0
9842 H 38.536019 10.666547 0.733861 H 0.0 **** 0.0
9843 H 37.303388 10.627652 1.611927 H 0.0 **** 0.0
9844 M 37.786942 11.026054 1.00331 M 0.0 **** 0.0
9845 O 30.151129 22.5519 20.444671 O 0.0 **** 0.0
9846 H 29.682742 22.17654 21.19029 H 0.0 **** 0.0
9847 H 29.935889 21.975668 19.711283 H 0.0 **** 0.0
9848 M 30.063616 22.430085 20.446236 M 0.0 **** 0.0
9849 O 37.29618 43.989518 34.347307 O 0.0 **** 0.0
9850 H 37.20077 44.933764 34.471907 H 0.0 **** 0.0
9851 H 36.421851 43.690908 34.097089 H 0.0 **** 0.0
9852 M 37.172042 44.072167 34.331226 M 0.0 **** 0.0
9853 O 0.483707 36.690898 6.503135 O 0.0 **** 0.0
9854 H 0.000594 35.906144 6.761965 H 0.0 **** 0.0
9855 H 0.875769 37.01031 7.315841 H 0.0 **** 0.0
9856 M 0.472051 36.631328 6.640305 M 0.0 **** 0.0
9857 O 22.466867 25.894308 44.624582 O 0.0 **** 0.0
9858 H 23.179649 26.502409 44.820501 H 0.0 **** 0.0
9859 H 22.841385 25.027326 44.78049 H 0.0 **** 0.0
9860 M 22.606055 25.861168 44.669621 M 0.0 **** 0.0
9861 O 32.500955 27.402512 36.013609 O 0.0 **** 0.0
9862 H 32.662646 28.192856 36.528819 H 0.0 **** 0.0
9863 H 31.54955 27.372118 35.912946 H 0.0 **** 0.0
9864 M 32.399862 27.499795 36.066676 M 0.0 **** 0.0
9865 O 42.601296 16.847724 45.598206 O 0.0 **** 0.0
9866 H 41.913155 16.450452 45.064478 H 0.0 **** 0.0
9867 H 42.65957 16.286359 46.371318 H 0.0 **** 0.0
9868 M 42.520665 16.725006 45.62885 M 0.0 **** 0.0
9869 O 15.459766 18.231394 16.064472 O 0.0 **** 0.0
9870 H 15.818344 19.063631 16.372745 H 0.0 **** 0.0
9871 H 14.51717 18.385186 16.00052 H 0.0 **** 0.0
9872 M 15.385005 18.357618 16.095748 M 0.0 **** 0.0
9873 O 18.681937 3.030953 33.077972 O 0.0 **** 0.0
9874 H 18.024667 2.60841 33.630857 H 0.0 **** 0.0
9875 H 19.188946 3.574769 33.680827 H 0.0 **** 0.0
9876 M 18.662702 3.046478 33.225921 M 0.0 **** 0.0
9877 O 24.816141 20.053265 38.442214 O 0.0 **** 0.0
9878 H 25.42164 19.448257 38.013769 H 0.0 **** 0.0
9879 H 25.371704 20.766836 38.755895 H 0.0 **** 0.0
9880 M 24.964772 20.067163 38.427523 M 0.0 **** 0.0
9881 O 19.604519 12.208874 12.437766 O 0.0 **** 0.0
9882 H 19.980741 12.399897 13.296949 H 0.0 **** 0.0
9883 H 20.273279 12.492601 11.814478 H 0.0 **** 0.0
9884 M 19.73829 12.269648 12.467963 M 0.0 **** 0.0
9885 O 28.43523 13.154574 3.246781 O 0.0 **** 0.0
9886 H 28.378031 13.325248 2.30666 H 0.0 **** 0.0
9887 H 29.052628 13.809534 3.572472 H 0.0 **** 0.0
9888 M 28.506942 13.260265 3.168126 M 0.0 **** 0.0
9889 O 19.380113 4.974777 16.606579 O 0.0 **** 0.0
9890 H 18.484042 5.304673 16.539846 H 0.0 **** 0.0
9891 H 19.912652 5.755589 16.758116 H 0.0 **** 0.0
9892 M 19.333576 5.116961 16.617435 M 0.0 **** 0.0
9893 O 47.413771 21.847591 18.452201 O 0.0 **** 0.0
9894 H 47.999351 22.137162 19.151825 H 0.0 **** 0.0
9895 H 47.999009 21.601857 17.735724 H 0.0 **** 0.0
9896 M 47.56365 21.853203 18.450044 M 0.0 **** 0.0
9897 O 43.269253 27.728127 23.480318 O 0.0 **** 0.0
9898 H 43.343326 28.558886 23.949978 H 0.0 **** 0.0
9899 H 43.734405 27.098634 24.031319 H 0.0 **** 0.0
9900 M 43.33828 27.753891 23.610976 M 0.0 **** 0.0
9901 O 19.665703 47.238661 47.436965 O 0.0 **** 0.0
9902 H 19.322864 46.517653 47.965015 H 0.0 **** 0.0
9903 H 19.594796 48.006415 48.0042 H 0.0 **** 0.0
9904 M 19.612738 47.244645 47.577175 M 0.0 **** 0.0
9905 O 14.249988 45.414278 45.816223 O 0.0 **** 0.0
9906 H 14.309343 44.600317 46.316395 H 0.0 **** 0.0
9907 H 14.544173 45.177477 44.936673 H 0.0 **** 0.0
9908 M 14.295246 45.279767 45.767658 M 0.0 **** 0.0
9909 O 47.704778 24.673844 15.331653 O 0.0 **** 0.0
9910 H 47.891407 24.819679 16.259085 H 0.0 **** 0.0
9911 H 47.61345 23.724378 15.251638 H 0.0 **** 0.0
9912 M 47.716978 24.570969 15.440133 M 0.0 **** 0.0
9913 O 18.163821 27.297384 11.57836 O 0.0 **** 0.0
9914 H 18.628104 26.470699 11.70975 H 0.0 **** 0.0
9915 H 18.856593 27.955641 11.52365 H 0.0 **** 0.0
9916 M 18.311939 27.275823 11.588176 M 0.0 **** 0.0
9917 O 4.61275 39.152241 17.056105 O 0.0 **** 0.0
9918 H 5.425946 39.446407 17.466478 H 0.0 **** 0.0
9919 H 4.652744 38.196972 17.101835 H 0.0 **** 0.0
9920 M 4.721969 39.067611 17.114492 M 0.0 **** 0.0
9921 O 15.084724 24.034364 29.903828 O 0.0 **** 0.0
9922 H 15.92537 24.424712 30.142932 H 0.0 **** 0.0
9923 H 15.315008 23.198908 29.497367 H 0.0 **** 0.0
9924 M 15.221817 23.977385 29.882405 M 0.0 **** 0.0
9925 O 28.364718 11.454036 45.410402 O 0.0 **** 0.0
9926 H 28.0245 11.069994 46.218481 H 0.0 **** 0.0
9927 H 28.445802 12.387919 45.604093 H 0.0 **** 0.0
9928 M 28.331546 11.524423 45.538641 M 0.0 **** 0.0
9929 O 20.483605 21.020096 14.462105 O 0.0 **** 0.0
9930 H 21.246889 21.516197 14.166283 H 0.0 **** 0.0
9931 H 19.737245 21.583448 14.257632 H 0.0 **** 0.0
9932 M 20.485772 21.155719 14.398061 M 0.0 **** 0.0
9933 O 33.434804 46.294757 3.016744 O 0.0 **** 0.0
9934 H 33.410868 45.352331 3.182544 H 0.0 **** 0.0
9935 H 34.063234 46.634618 3.653768 H 0.0 **** 0.0
9936 M 33.512187 46.217621 3.119516 M 0.0 **** 0.0
9937 O 32.590504 1.109391 37.453493 O 0.0 **** 0.0
9938 H 31.865349 1.456516 36.933989 H 0.0 **** 0.0
9939 H 33.351279 1.172702 36.876049 H 0.0 **** 0.0
9940 M 32.595063 1.161932 37.31307 M 0.0 **** 0.0
9941 O 20.38361 28.153546 9.543759 O 0.0 **** 0.0
9942 H 20.969225 27.570078 9.061214 H 0.0 **** 0.0
9943 H 20.938929 28.887787 9.805941 H 0.0 **** 0.0
9944 M 20.529664 28.172847 9.515549 M 0.0 **** 0.0
9945 O 42.774586 46.753577 15.422343 O 0.0 **** 0.0
9946 H 43.082822 46.165748 14.732651 H 0.0 **** 0.0
9947 H 41.839911 46.861044 15.246098 H 0.0 **** 0.0
9948 M 42.694394 46.692084 15.311492 M 0.0 **** 0.0
9949 O 44.424389 21.723516 36.712865 O 0.0 **** 0.0
9950 H 44.861286 22.564103 36.575887 H 0.0 **** 0.0
9951 H 43.501017 21.948677 36.826514 H 0.0 **** 0.0
9952 M 44.362114 21.859945 36.709879 M 0.0 **** 0.0
9953 O 36.903602 43.590232 23.813333 O 0.0 **** 0.0
9954 H 37.565236 43.259443 23.205839 H 0.0 **** 0.0
9955 H 36.190745 42.953517 23.761785 H 0.0 **** 0.0
9956 M 36.897045 43.466379 23.728967 M 0.0 **** 0.0
9957 O 6.762788 47.273336 38.056087 O 0.0 **** 0.0
9958 H 6.191048 47.672386 38.711908 H 0.0 **** 0.0
9959 H 6.255043 46.539584 37.709632 H 0.0 **** 0.0
9960 M 6.6246 47.23049 38.09569 M 0.0 **** 0.0
9961 O 24.642558 44.271676 8.624002 O 0.0 **** 0.0
9962 H 23.799459 43.907412 8.893677 H 0.0 **** 0.0
9963 H 25.177715 43.506849 8.412165 H 0.0 **** 0.0
9964 M 24.603138 44.127138 8.631406 M 0.0 **** 0.0
9965 O 7.810363 42.053398 6.051298 O 0.0 **** 0.0
9966 H 7.031413 41.659787 5.658187 H 0.0 **** 0.0
9967 H 7.895203 41.620637 6.900856 H 0.0 **** 0.0
9968 M 7.721508 41.947612 6.109729 M 0.0 **** 0.0
9969 O 11.659284 15.805444 45.582185 O 0.0 **** 0.0
9970 H 11.093871 16.325122 46.153563 H 0.0 **** 0.0
9971 H 12.420402 16.364235 45.425085 H 0.0 **** 0.0
9972 M 11.684337 15.943501 45.635218 M 0.0 **** 0.0
9973 O 30.466158 35.469727 15.456766 O 0.0 **** 0.0
9974 H 29.537385 35.689462 15.529745 H 0.0 **** 0.0
9975 H 30.910808 36.316507 15.418315 H 0.0 **** 0.0
9976 M 30.404184 35.606254 15.461186 M 0.0 **** 0.0
9977 O 40.154427 19.288649 39.601086 O 0.0 **** 0.0
9978 H 40.931357 19.816883 39.417847 H 0.0 **** 0.0
9979 H 40.413713 18.394807 39.377377 H 0.0 **** 0.0
9980 M 40.287075 19.241847 39.548991 M 0.0 **** 0.0
9981 O 36.697821 30.307929 11.80127 O 0.0 **** 0.0
9982 H 36.704627 30.462705 12.745847 H 0.0 **** 0.0
9983 H 36.9118 31.158188 11.417211 H 0.0 **** 0.0
9984 M 36.726084 30.436586 11.873023 M 0.0 **** 0.0
9985 O 39.741861 34.381712 42.62038 O 0.0 **** 0.0
9986 H 38.899028 33.963713 42.796843 H 0.0 **** 0.0
9987 H 39.830538 35.042446 43.307254 H 0.0 **** 0.0
9988 M 39.645319 34.412785 42.730898 M 0.0 **** 0.0
9989 O 0.69667 5.071508 2.059758 O 0.0 **** 0.0
9990 H 1.343503 4.374103 2.166819 H 0.0 **** 0.0
9991 H -0.012822 4.834539 2.656998 H 0.0 **** 0.0
9992 M 0.688649 4.951897 2.149917 M 0.0 **** 0.0
9993 O 18.176331 14.830495 40.598903 O 0.0 **** 0.0
9994 H 18.647303 15.584582 40.953539 H 0.0 **** 0.0
9995 H 18.161018 14.197735 41.316962 H 0.0 **** 0.0
9996 M 18.234661 14.846026 40.736221 M 0.0 **** 0.0
9997 O 0.421904 47.982272 40.651052 O 0.0 **** 0.0
9998 H 0.049299 47.101265 40.685992 H 0.0 **** 0.0
9999 H 1.061695 48.000656 41.362781 H 0.0 **** 0.0
10000 M 0.456107 47.871846 40.746635 M 0.0 **** 0.0
10001 O 18.532529 7.33918 9.357223 O 0.0 **** 0.0
10002 H 18.35002 6.46343 9.016664 H 0.0 **** 0.0
10003 H 19.405615 7.548574 9.025403 H 0.0 **** 0.0
10004 M 18.620932 7.253878 9.27115 M 0.0 **** 0.0
10005 O 19.902307 39.999375 9.94304 O 0.0 **** 0.0
10006 H 20.567476 39.564906 10.476908 H 0.0 **** 0.0
10007 H 19.108087 39.483656 10.082604 H 0.0 **** 0.0
10008 M 19.885787 39.877739 10.029248 M 0.0 **** 0.0
10009 O 38.491138 29.580938 5.579615 O 0.0 **** 0.0
10010 H 38.676479 28.645589 5.495951 H 0.0 **** 0.0
10011 H 39.340414 29.977442 5.773889 H 0.0 **** 0.0
10012 M 38.623582 29.511959 5.593775 M 0.0 **** 0.0
10013 O 24.537572 7.174842 41.491625 O 0.0 **** 0.0
10014 H 23.61349 7.341721 41.306011 H 0.0 **** 0.0
10015 H 24.758341 6.417608 40.949328 H 0.0 **** 0.0
10016 M 24.447539 7.099269 41.398444 M 0.0 **** 0.0
10017 O 27.70842 29.916222 10.054923 O 0.0 **** 0.0
10018 H 28.58647 29.835242 10.427348 H 0.0 **** 0.0
10019 H 27.425292 30.797872 10.297331 H 0.0 **** 0.0
10020 M 27.784578 30.018718 10.133629 M 0.0 **** 0.0
10021 O 42.193483 3.213094 32.509097 O 0.0 **** 0.0
10022 H 42.841856 3.894849 32.68531 H 0.0 **** 0.0
10023 H 42.709663 2.41561 32.391591 H 0.0 **** 0.0
10024 M 42.342561 3.198279 32.516612 M 0.0 **** 0.0
10025 O 5.545511 9.00865 34.467093 O 0.0 **** 0.0
10026 H 5.661549 8.060253 34.409591 H 0.0 **** 0.0
10027 H 4.68596 9.12109 34.872996 H 0.0 **** 0.0
10028 M 5.450332 8.901637 34.511693 M 0.0 **** 0.0
10029 O 26.12907 41.16288 11.781913 O 0.0 **** 0.0
10030 H 26.501234 42.044697 11.79297 H 0.0 **** 0.0
10031 H 25.18207 41.302121 11.776151 H 0.0 **** 0.0
10032 M 26.055483 41.293588 11.782591 M 0.0 **** 0.0
10033 O 24.6506 35.880643 13.595868 O 0.0 **** 0.0
10034 H 24.686701 36.271117 12.722681 H 0.0 **** 0.0
10035 H 23.724007 35.91072 13.834089 H 0.0 **** 0.0
10036 M 24.536606 35.934479 13.514585 M 0.0 **** 0.0
10037 O 41.873016 12.796346 37.650971 O 0.0 **** 0.0
10038 H 42.440082 13.554503 37.510037 H 0.0 **** 0.0
10039 H 41.151129 12.918675 37.034412 H 0.0 **** 0.0
10040 M 41.853197 12.909059 37.554002 M 0.0 **** 0.0
10041 O 41.084946 13.649519 13.120873 O 0.0 **** 0.0
10042 H 41.611407 13.672276 12.32178 H 0.0 **** 0.0
10043 H 40.260058 14.069329 12.876847 H 0.0 **** 0.0
10044 M 41.046744 13.706173 12.987341 M 0.0 **** 0.0
10045 O 32.808118 20.832767 11.610671 O 0.0 **** 0.0
10046 H 32.365618 20.957954 12.450166 H 0.0 **** 0.0
10047 H 32.96886 19.890403 11.562288 H 0.0 **** 0.0
10048 M 32.772049 20.728158 11.711943 M 0.0 **** 0.0
10049 O 0.375352 28.084017 46.647025 O 0.0 **** 0.0
10050 H 0.529286 27.161874 46.852412 H 0.0 **** 0.0
10051 H 3e-06 28.074364 45.766542 H 0.0 **** 0.0
10052 M 0.347008 27.964736 46.560604 M 0.0 **** 0.0
10053 O 13.0248 36.158278 4.200915 O 0.0 **** 0.0
10054 H 13.37159 35.267688 4.147867 H 0.0 **** 0.0
10055 H 12.076163 36.05095 4.131651 H 0.0 **** 0.0
10056 M 12.947756 36.030532 4.185257 M 0.0 **** 0.0
10057 O 6.235956 39.632234 5.955822 O 0.0 **** 0.0
10058 H 6.001431 38.801719 6.369914 H 0.0 **** 0.0
10059 H 5.858202 39.577825 5.078001 H 0.0 **** 0.0
10060 M 6.157576 39.518953 5.896459 M 0.0 **** 0.0
10061 O 46.354442 4.404682 33.201236 O 0.0 **** 0.0
10062 H 45.495244 4.027843 33.390974 H 0.0 **** 0.0
10063 H 46.546011 4.958546 33.958047 H 0.0 **** 0.0
10064 M 46.268977 4.427343 33.322406 M 0.0 **** 0.0
10065 O 15.625937 27.202978 19.942962 O 0.0 **** 0.0
10066 H 15.452522 27.963164 19.387738 H 0.0 **** 0.0
10067 H 15.182808 26.4779 19.502362 H 0.0 **** 0.0
10068 M 15.547012 27.207472 19.815484 M 0.0 **** 0.0
10069 O 30.545197 29.309356 37.513172 O 0.0 **** 0.0
10070 H 31.303952 29.05152 38.036659 H 0.0 **** 0.0
10071 H 30.360758 30.208553 37.784567 H 0.0 **** 0.0
10072 M 30.618717 29.391459 37.614927 M 0.0 **** 0.0
10073 O 10.995171 38.699185 20.126647 O 0.0 **** 0.0
10074 H 11.840455 38.683726 19.677776 H 0.0 **** 0.0
10075 H 11.218031 38.729562 21.057044 H 0.0 **** 0.0
10076 M 11.131907 38.701094 20.188288 M 0.0 **** 0.0
10077 O 47.009855 3.270218 46.496583 O 0.0 **** 0.0
10078 H 47.555699 3.137491 45.721556 H 0.0 **** 0.0
10079 H 47.633336 3.349214 47.218566 H 0.0 **** 0.0
10080 M 47.159544 3.26334 46.489793 M 0.0 **** 0.0
10081 O 8.160571 15.537827 43.058471 O 0.0 **** 0.0
10082 H 7.704476 15.546981 43.899971 H 0.0 **** 0.0
10083 H 8.541959 14.661726 43.001729 H 0.0 **** 0.0
10084 M 8.151008 15.426847 43.15893 M 0.0 **** 0.0
10085 O 34.191797 28.393471 44.678281 O 0.0 **** 0.0
10086 H 34.296351 27.70237 45.332251 H 0.0 **** 0.0
10087 H 33.759046 27.962797 43.941074 H 0.0 **** 0.0
10088 M 34.149784 28.24987 44.667626 M 0.0 **** 0.0
10089 O 42.019378 23.130324 5.525588 O 0.0 **** 0.0
10090 H 42.866743 23.511792 5.296061 H 0.0 **** 0.0
10091 H 41.745269 23.608055 6.308445 H 0.0 **** 0.0
10092 M 42.092762 23.240312 5.596421 M 0.0 **** 0.0
10093 O 13.220154 8.449096 26.258897 O 0.0 **** 0.0
10094 H 12.306439 8.527406 25.984635 H 0.0 **** 0.0
10095 H 13.448954 9.320224 26.582959 H 0.0 **** 0.0
10096 M 13.132477 8.570636 26.265272 M 0.0 **** 0.0
10097 O 38.786821 8.608302 21.978273 O 0.0 **** 0.0
10098 H 38.694576 7.659595 22.065887 H 0.0 **** 0.0
10099 H 38.608928 8.948706 22.855033 H 0.0 **** 0.0
10100 M 38.75224 8.530431 22.101725 M 0.0 **** 0.0
10101 O 36.898209 1.570493 41.925214 O 0.0 **** 0.0
10102 H 37.046527 2.461979 41.609805 H 0.0 **** 0.0
10103 H 36.187194 1.237405 41.377731 H 0.0 **** 0.0
10104 M 36.826177 1.641975 41.814753 M 0.0 **** 0.0
10105 O 44.746684 44.486958 46.838853 O 0.0 **** 0.0
10106 H 45.670067 44.29313 47.00017 H 0.0 **** 0.0
10107 H 44.395393 44.714952 47.699574 H 0.0 **** 0.0
10108 M 44.819919 44.491332 46.969687 M 0.0 **** 0.0
10109 O 24.046224 13.188221 20.384886 O 0.0 **** 0.0
10110 H 24.996132 13.268275 20.471456 H 0.0 **** 0.0
10111 H 23.709278 14.049328 20.632253 H 0.0 **** 0.0
10112 M 24.124691 13.308701 20.427634 M 0.0 **** 0.0
10113 O 14.949382 4.795041 30.291005 O 0.0 **** 0.0
10114 H 14.89055 5.106446 29.387792 H 0.0 **** 0.0
10115 H 15.888358 4.768286 30.474953 H 0.0 **** 0.0
10116 M 15.062051 4.83148 30.19893 M 0.0 **** 0.0
10117 O 33.058598 11.759237 8.788397 O 0.0 **** 0.0
10118 H 32.736484 11.820092 9.687713 H 0.0 **** 0.0
10119 H 33.822118 11.184758 8.845309 H 0.0 **** 0.0
10120 M 33.115103 11.693487 8.910806 M 0.0 **** 0.0
10121 O 16.959577 12.667934 12.585324 O 0.0 **** 0.0
10122 H 16.221562 12.430781 12.023788 H 0.0 **** 0.0
10123 H 16.582391 13.251455 13.243702 H 0.0 **** 0.0
10124 M 16.816817 12.712273 12.597721 M 0.0 **** 0.0
10125 O 29.569322 5.122346 40.507934 O 0.0 **** 0.0
10126 H 29.159975 4.368079 40.083972 H 0.0 **** 0.0
10127 H 28.869263 5.512755 41.031123 H 0.0 **** 0.0
10128 M 29.427304 5.075768 40.520636 M 0.0 **** 0.0
10129 O 38.902495 15.734554 18.061581 O 0.0 **** 0.0
10130 H 38.442451 15.891737 17.237032 H 0.0 **** 0.0
10131 H 38.233092 15.378386 18.645766 H 0.0 **** 0.0
10132 M 38.757911 15.709082 18.030811 M 0.0 **** 0.0
10133 O 21.780939 18.517151 10.340965 O 0.0 **** 0.0
10134 H 22.089129 18.721893 11.223761 H 0.0 **** 0.0
10135 H 20.840494 18.69336 10.368197 H 0.0 **** 0.0
10136 M 21.700002 18.565918 10.45746 M 0.0 **** 0.0
10137 O 29.975774 47.053389 29.395115 O 0.0 **** 0.0
10138 H 29.604756 46.840565 28.538798 H 0.0 **** 0.0
10139 H 30.114595 48.000078 29.367947 H 0.0 **** 0.0
10140 M 29.94605 47.147333 29.282018 M 0.0 **** 0.0
10141 O 9.44353 14.758044 16.618217 O 0.0 **** 0.0
10142 H 9.11233 13.924767 16.953155 H 0.0 **** 0.0
10143 H 8.676318 15.330014 16.596692 H 0.0 **** 0.0
10144 M 9.30292 14.724593 16.658338 M 0.0 **** 0.0
10145 O 48.017589 2.439966 41.281559 O 0.0 **** 0.0
10146 H 47.867009 2.714012 42.186243 H 0.0 **** 0.0
10147 H 47.413732 1.709301 41.148462 H 0.0 **** 0.0
10148 M 47.921011 2.381513 41.380332 M 0.0 **** 0.0
10149 O 25.86423 6.058949 4.189965 O 0.0 **** 0.0
10150 H 25.171365 5.413943 4.048068 H 0.0 **** 0.0
10151 H 26.658845 5.537019 4.301349 H 0.0 **** 0.0
10152 M 25.877256 5.909566 4.186059 M 0.0 **** 0.0
10153 O 14.32915 36.275912 7.417255 O 0.0 **** 0.0
10154 H 14.327886 37.226045 7.301176 H 0.0 **** 0.0
10155 H 13.407093 36.025735 7.358518 H 0.0 **** 0.0
10156 M 14.210954 36.365515 7.394876 M 0.0 **** 0.0
10157 O 12.096219 31.559086 33.470491 O 0.0 **** 0.0
10158 H 11.141792 31.631863 33.469506 H 0.0 **** 0.0
10159 H 12.26506 30.616897 33.471856 H 0.0 **** 0.0
10160 M 11.995655 31.44779 33.47054 M 0.0 **** 0.0
10161 O 17.141808 0.582517 41.993054 O 0.0 **** 0.0
10162 H 17.551757 -0.023987 41.37635 H 0.0 **** 0.0
10163 H 17.684495 1.369935 41.951899 H 0.0 **** 0.0
10164 M 17.263758 0.605676 41.90884 M 0.0 **** 0.0
10165 O 5.921215 37.092955 26.776197 O 0.0 **** 0.0
10166 H 6.823959 36.882196 26.537734 H 0.0 **** 0.0
10167 H 5.434848 37.029697 25.954203 H 0.0 **** 0.0
10168 M 5.974517 37.057877 26.640445 M 0.0 **** 0.0
10169 O 12.251464 32.580982 39.289845 O 0.0 **** 0.0
10170 H 11.577921 31.962179 39.57207 H 0.0 **** 0.0
10171 H 11.842758 33.441131 39.38645 H 0.0 **** 0.0
10172 M 12.112922 32.611877 39.33834 M 0.0 **** 0.0
10173 O 28.003036 46.208653 20.176797 O 0.0 **** 0.0
10174 H 27.3829 46.115393 20.899959 H 0.0 **** 0.0
10175 H 28.500077 46.999135 20.387311 H 0.0 **** 0.0
10176 M 27.987278 46.297906 20.296319 M 0.0 **** 0.0
10177 O 17.339633 27.957605 37.09406 O 0.0 **** 0.0
10178 H 16.651311 27.343021 37.348475 H 0.0 **** 0.0
10179 H 17.678316 28.2953 37.923207 H 0.0 **** 0.0
10180 M 17.294875 27.92216 37.232769 M 0.0 **** 0.0
10181 O 26.979526 24.849649 19.218169 O 0.0 **** 0.0
10182 H 26.598409 23.971713 19.203763 H 0.0 **** 0.0
10183 H 26.225105 25.43878 19.219705 H 0.0 **** 0.0
10184 M 26.834163 24.812678 19.216522 M 0.0 **** 0.0
10185 O 42.847567 10.501797 23.580583 O 0.0 **** 0.0
10186 H 42.755304 11.416512 23.3141 H 0.0 **** 0.0
10187 H 41.979314 10.256134 23.89998 H 0.0 **** 0.0
10188 M 42.724609 10.587444 23.587357 M 0.0 **** 0.0
10189 O 15.690023 40.954346 15.434449 O 0.0 **** 0.0
10190 H 14.771223 41.067199 15.190937 H 0.0 **** 0.0
10191 H 15.789203 40.011523 15.566644 H 0.0 **** 0.0
10192 M 15.585102 40.8481 15.420199 M 0.0 **** 0.0
10193 O 6.437922 33.559714 7.350827 O 0.0 **** 0.0
10194 H 6.010155 34.38043 7.595101 H 0.0 **** 0.0
10195 H 7.367117 33.713203 7.521901 H 0.0 **** 0.0
10196 M 6.502111 33.684424 7.403996 M 0.0 **** 0.0
10197 O 25.012408 2.520733 2.784788 O 0.0 **** 0.0
10198 H 25.033188 3.404833 3.151074 H 0.0 **** 0.0
10199 H 25.14712 1.945663 3.538032 H 0.0 **** 0.0
10200 M 25.032313 2.560293 2.928102 M 0.0 **** 0.0
10201 O 27.726594 30.031081 28.948726 O 0.0 **** 0.0
10202 H 27.800362 30.729221 28.298044 H 0.0 **** 0.0
10203 H 27.24945 30.430403 29.676121 H 0.0 **** 0.0
10204 M 27.674957 30.17157 28.958546 M 0.0 **** 0.0
10205 O 20.964514 28.705519 7.07658 O 0.0 **** 0.0
10206 H 20.627914 27.826123 6.904557 H 0.0 **** 0.0
10207 H 20.393615 29.284138 6.571107 H 0.0 **** 0.0
10208 M 20.848343 28.667016 6.989852 M 0.0 **** 0.0
10209 O 30.623827 45.472187 -0.001377 O 0.0 **** 0.0
10210 H 30.453856 44.775777 0.632934 H 0.0 **** 0.0
10211 H 30.436868 46.281287 0.474682 H 0.0 **** 0.0
10212 M 30.578136 45.486613 0.140764 M 0.0 **** 0.0
10213 O 17.828846 31.843742 43.875377 O 0.0 **** 0.0
10214 H 17.352275 32.264488 44.590976 H 0.0 **** 0.0
10215 H 18.576234 31.422442 44.299813 H 0.0 **** 0.0
10216 M 17.863514 31.843671 44.021315 M 0.0 **** 0.0
10217 O 17.406858 0.833853 14.841117 O 0.0 **** 0.0
10218 H 16.970874 0.000209 14.664523 H 0.0 **** 0.0
10219 H 18.336533 0.612089 14.893589 H 0.0 **** 0.0
10220 M 17.470057 0.698747 14.825228 M 0.0 **** 0.0
10221 O 18.258708 28.808931 6.780219 O 0.0 **** 0.0
10222 H 17.517088 28.689192 7.373423 H 0.0 **** 0.0
10223 H 18.471801 27.925039 6.480963 H 0.0 **** 0.0
10224 M 18.19105 28.680454 6.817848 M 0.0 **** 0.0
10225 O 18.929002 47.649156 5.234127 O 0.0 **** 0.0
10226 H 18.074846 48.075671 5.16534 H 0.0 **** 0.0
10227 H 18.750307 46.724818 5.061225 H 0.0 **** 0.0
10228 M 18.796784 47.585429 5.203188 M 0.0 **** 0.0
10229 O 41.396931 17.257297 36.17156 O 0.0 **** 0.0
10230 H 41.922407 17.627294 35.46219 H 0.0 **** 0.0
10231 H 40.589913 17.772 36.166045 H 0.0 **** 0.0
10232 M 41.36089 17.370549 36.080046 M 0.0 **** 0.0
10233 O 5.064546 16.397628 28.257318 O 0.0 **** 0.0
10234 H 5.585814 16.717639 28.993592 H 0.0 **** 0.0
10235 H 5.682384 16.352234 27.52763 H 0.0 **** 0.0
10236 M 5.210366 16.432782 28.258161 M 0.0 **** 0.0
10237 O 12.333868 17.220992 7.358568 O 0.0 **** 0.0
10238 H 13.062782 16.600641 7.367336 H 0.0 **** 0.0
10239 H 12.593542 17.887423 6.722433 H 0.0 **** 0.0
10240 M 12.460419 17.226891 7.278257 M 0.0 **** 0.0
10241 O 26.814454 43.546664 9.87515 O 0.0 **** 0.0
10242 H 26.271832 44.041394 10.48918 H 0.0 **** 0.0
10243 H 27.251361 44.215669 9.348108 H 0.0 **** 0.0
10244 M 26.800921 43.695637 9.886286 M 0.0 **** 0.0
10245 O 17.933969 27.459008 9.310351 O 0.0 **** 0.0
10246 H 16.988099 27.320701 9.359636 H 0.0 **** 0.0
10247 H 18.20971 26.960143 8.541372 H 0.0 **** 0.0
10248 M 17.848184 27.377442 9.218221 M 0.0 **** 0.0
10249 O 44.475172 36.08944 29.52433 O 0.0 **** 0.0
10250 H 45.11941 35.423921 29.765721 H 0.0 **** 0.0
10251 H 43.686767 35.592337 29.306305 H 0.0 **** 0.0
10252 M 44.456717 35.94061 29.527322 M 0.0 **** 0.0
10253 O 10.939312 2.049875 40.965238 O 0.0 **** 0.0
10254 H 10.691828 2.289937 41.858183 H 0.0 **** 0.0
10255 H 11.591465 2.703553 40.712989 H 0.0 **** 0.0
10256 M 10.991114 2.164285 41.047255 M 0.0 **** 0.0
10257 O 44.165552 0.495228 16.782742 O 0.0 **** 0.0
10258 H 43.236805 0.69331 16.902836 H 0.0 **** 0.0
10259 H 44.477846 0.268668 17.65874 H 0.0 **** 0.0
10260 M 44.086638 0.491583 16.910255 M 0.0 **** 0.0
10261 O 43.480888 10.600708 30.534485 O 0.0 **** 0.0
10262 H 43.117647 9.933173 31.116449 H 0.0 **** 0.0
10263 H 42.87879 11.340696 30.612742 H 0.0 **** 0.0
10264 M 43.357312 10.609983 30.619001 M 0.0 **** 0.0
10265 O 31.905055 3.077662 6.016382 O 0.0 **** 0.0
10266 H 32.799033 3.306202 6.270947 H 0.0 **** 0.0
10267 H 31.91479 2.123889 5.936065 H 0.0 **** 0.0
10268 M 32.020742 2.984823 6.038688 M 0.0 **** 0.0
10269 O 31.001424 29.867588 40.13906 O 0.0 **** 0.0
10270 H 31.053016 29.489928 41.017092 H 0.0 **** 0.0
10271 H 30.065319 29.885163 39.939995 H 0.0 **** 0.0
10272 M 30.888196 29.821493 40.225976 M 0.0 **** 0.0
10273 O 40.690039 32.983709 34.962023 O 0.0 **** 0.0
10274 H 41.265577 33.736775 35.095723 H 0.0 **** 0.0
10275 H 41.200521 32.385385 34.416455 H 0.0 **** 0.0
10276 M 40.829063 33.003518 34.909299 M 0.0 **** 0.0
10277 O 36.177785 28.098374 31.168603 O 0.0 **** 0.0
10278 H 36.14116 27.20571 30.825037 H 0.0 **** 0.0
10279 H 37.112912 28.288526 31.243487 H 0.0 **** 0.0
10280 M 36.292804 28.008444 31.134208 M 0.0 **** 0.0
10281 O 30.402847 33.783164 40.29461 O 0.0 **** 0.0
10282 H 30.637017 34.327124 39.542612 H 0.0 **** 0.0
10283 H 30.844231 34.196568 41.036571 H 0.0 **** 0.0
10284 M 30.489326 33.905718 40.293325 M 0.0 **** 0.0
10285 O 21.891633 8.010216 28.536705 O 0.0 **** 0.0
10286 H 22.073601 7.452484 27.780364 H 0.0 **** 0.0
10287 H 21.933256 7.417732 29.287344 H 0.0 **** 0.0
10288 M 21.920256 7.862974 28.535975 M 0.0 **** 0.0
10289 O 39.443737 38.897679 8.878073 O 0.0 **** 0.0
10290 H 38.631496 38.395764 8.810443 H 0.0 **** 0.0
10291 H 39.499188 39.377016 8.051399 H 0.0 **** 0.0
10292 M 39.346859 38.894789 8.763591 M 0.0 **** 0.0
10293 O 38.801159 20.394537 11.971527 O 0.0 **** 0.0
10294 H 38.371189 21.09153 12.467063 H 0.0 **** 0.0
10295 H 39.274896 19.888107 12.631323 H 0.0 **** 0.0
10296 M 38.806761 20.418932 12.119424 M 0.0 **** 0.0
10297 O 47.33084 27.679958 42.775446 O 0.0 **** 0.0
10298 H 46.512857 27.223194 42.971659 H 0.0 **** 0.0
10299 H 48.015613 27.039855 42.969312 H 0.0 **** 0.0
10300 M 47.313788 27.539545 42.825381 M 0.0 **** 0.0
10301 O 36.707202 38.300575 1.782522 O 0.0 **** 0.0
10302 H 37.135764 37.507644 2.104738 H 0.0 **** 0.0
10303 H 37.236729 39.017951 2.130664 H 0.0 **** 0.0
10304 M 36.82985 38.290903 1.868336 M 0.0 **** 0.0
10305 O 16.194106 48.001376 1.93505 O 0.0 **** 0.0
10306 H 15.598499 47.958494 2.683143 H 0.0 **** 0.0
10307 H 17.068633 48.000338 2.32419 H 0.0 **** 0.0
10308 M 16.229811 47.995754 2.08063 M 0.0 **** 0.0
10309 O 30.44641 31.541501 15.074976 O 0.0 **** 0.0
10310 H 29.942107 32.159176 14.545463 H 0.0 **** 0.0
10311 H 30.708997 30.856697 14.459899 H 0.0 **** 0.0
10312 M 30.415468 31.532908 14.928454 M 0.0 **** 0.0
10313 O 20.044363 36.113976 27.30398 O 0.0 **** 0.0
10314 H 20.872387 35.749784 27.616979 H 0.0 **** 0.0
10315 H 20.123546 36.104974 26.350105 H 0.0 **** 0.0
10316 M 20.160497 36.066203 27.22194 M 0.0 **** 0.0
10317 O 28.261365 44.789642 2.472695 O 0.0 **** 0.0
10318 H 28.285686 45.744862 2.529188 H 0.0 **** 0.0
10319 H 29.150674 44.513414 2.694182 H 0.0 **** 0.0
10320 M 28.378321 44.876562 2.50828 M 0.0 **** 0.0
10321 O 0.365876 3.266071 8.134414 O 0.0 **** 0.0
10322 H 0.00032 2.570694 7.587561 H 0.0 **** 0.0
10323 H 0.004012 4.073615 7.769511 H 0.0 **** 0.0
10324 M 0.272757 3.28043 8.017698 M 0.0 **** 0.0
10325 O 9.043746 30.717693 9.725914 O 0.0 **** 0.0
10326 H 8.134989 30.926508 9.942216 H 0.0 **** 0.0
10327 H 9.115378 29.774894 9.875005 H 0.0 **** 0.0
10328 M 8.936583 30.623734 9.772689 M 0.0 **** 0.0
10329 O 8.867496 28.051472 5.609254 O 0.0 **** 0.0
10330 H 8.520427 28.012893 4.718028 H 0.0 **** 0.0
10331 H 8.092834 28.014453 6.170287 H 0.0 **** 0.0
10332 M 8.7239 28.041794 5.566985 M 0.0 **** 0.0
10333 O 33.815071 38.771484 28.840709 O 0.0 **** 0.0
10334 H 33.689095 39.707537 28.685264 H 0.0 **** 0.0
10335 H 34.173249 38.437687 28.018203 H 0.0 **** 0.0
10336 M 33.844796 38.84858 28.715519 M 0.0 **** 0.0
10337 O 2.245277 7.019853 7.735862 O 0.0 **** 0.0
10338 H 2.225159 7.586069 6.964354 H 0.0 **** 0.0
10339 H 3.105718 7.175383 8.125321 H 0.0 **** 0.0
10340 M 2.352849 7.112246 7.686955 M 0.0 **** 0.0
10341 O 38.972781 41.273219 17.02933 O 0.0 **** 0.0
10342 H 38.915866 41.208638 17.982649 H 0.0 **** 0.0
10343 H 39.76613 41.784648 16.870374 H 0.0 **** 0.0
10344 M 39.067054 41.330421 17.131018 M 0.0 **** 0.0
10345 O 11.154124 10.867276 44.43397 O 0.0 **** 0.0
10346 H 12.081459 11.102947 44.40681 H 0.0 **** 0.0
10347 H 10.692283 11.704332 44.386323 H 0.0 **** 0.0
10348 M 11.213713 11.004599 44.424394 M 0.0 **** 0.0
10349 O 43.622756 35.034709 16.327799 O 0.0 **** 0.0
10350 H 42.669566 35.084525 16.399748 H 0.0 **** 0.0
10351 H 43.777275 34.439949 15.593896 H 0.0 **** 0.0
10352 M 43.520516 34.964949 16.243061 M 0.0 **** 0.0
10353 O 40.903206 33.931346 6.194072 O 0.0 **** 0.0
10354 H 40.545095 33.675078 5.344182 H 0.0 **** 0.0
10355 H 41.733388 33.459043 6.25697 H 0.0 **** 0.0
10356 M 40.963637 33.83808 6.093327 M 0.0 **** 0.0
10357 O 6.680049 1.698065 47.983807 O 0.0 **** 0.0
10358 H 5.754815 1.942824 48.00004 H 0.0 **** 0.0
10359 H 6.872269 1.547527 47.05827 H 0.0 **** 0.0
10360 M 6.586214 1.710126 47.867405 M 0.0 **** 0.0
10361 O 2.437154 39.763603 9.846041 O 0.0 **** 0.0
10362 H 1.966862 38.930477 9.876956 H 0.0 **** 0.0
10363 H 1.849283 40.387012 10.272653 H 0.0 **** 0.0
10364 M 2.301696 39.736757 9.90461 M 0.0 **** 0.0
10365 O 7.232071 2.234815 27.390497 O 0.0 **** 0.0
10366 H 7.910208 1.576271 27.541094 H 0.0 **** 0.0
10367 H 7.563931 3.023491 27.819551 H 0.0 **** 0.0
10368 M 7.361364 2.251473 27.4647 M 0.0 **** 0.0
10369 O 46.290957 34.745711 32.337376 O 0.0 **** 0.0
10370 H 47.079168 34.950002 32.840583 H 0.0 **** 0.0
10371 H 46.266984 35.410077 31.648701 H 0.0 **** 0.0
10372 M 46.388789 34.85691 32.313634 M 0.0 **** 0.0
10373 O 46.68463 4.2041 21.997072 O 0.0 **** 0.0
10374 H 46.843195 4.569172 22.867594 H 0.0 **** 0.0
10375 H 46.680438 4.964134 21.415213 H 0.0 **** 0.0
10376 M 46.704392 4.348127 22.034025 M 0.0 **** 0.0
10377 O 10.501505 34.750591 33.091142 O 0.0 **** 0.0
10378 H 10.178611 35.100252 32.260657 H 0.0 **** 0.0
10379 H 10.273333 33.821348 33.065223 H 0.0 **** 0.0
10380 M 10.430962 34.676397 32.981512 M 0.0 **** 0.0
10381 O 30.942604 9.088884 13.25842 O 0.0 **** 0.0
10382 H 30.748466 9.951531 12.891841 H 0.0 **** 0.0
10383 H 31.398774 8.626479 12.555342 H 0.0 **** 0.0
10384 M 30.976147 9.14012 13.12149 M 0.0 **** 0.0
10385 O 46.59583 33.155113 13.283812 O 0.0 **** 0.0
10386 H 46.756417 33.890233 12.692171 H 0.0 **** 0.0
10387 H 46.080083 33.52991 13.997787 H 0.0 **** 0.0
10388 M 46.550365 33.297196 13.299472 M 0.0 **** 0.0
10389 O 23.629699 40.814061 47.15293 O 0.0 **** 0.0
10390 H 24.476647 41.254331 47.224135 H 0.0 **** 0.0
10391 H 23.847457 39.910254 46.925018 H 0.0 **** 0.0
10392 M 23.765995 40.754722 47.132869 M 0.0 **** 0.0
10393 O 1.270845 27.62716 38.380714 O 0.0 **** 0.0
10394 H 0.548659 28.2325 38.548759 H 0.0 **** 0.0
10395 H 1.302188 27.549778 37.427164 H 0.0 **** 0.0
10396 M 1.182408 27.694745 38.28016 M 0.0 **** 0.0
10397 O 2.018298 26.285894 2.830477 O 0.0 **** 0.0
10398 H 2.1482 25.457859 3.292767 H 0.0 **** 0.0
10399 H 1.068918 26.360358 2.733713 H 0.0 **** 0.0
10400 M 1.913394 26.189428 2.877269 M 0.0 **** 0.0
10401 O 11.514646 47.538507 13.060725 O 0.0 **** 0.0
10402 H 11.074829 48.000614 13.77434 H 0.0 **** 0.0
10403 H 12.345211 48.001467 12.95092 H 0.0 **** 0.0
10404 M 11.564666 47.656927 13.13802 M 0.0 **** 0.0
10405 O 13.973117 33.701123 42.314231 O 0.0 **** 0.0
10406 H 13.248882 33.218137 42.712271 H 0.0 **** 0.0
10407 H 14.684963 33.633783 42.950603 H 0.0 **** 0.0
10408 M 13.971531 33.630674 42.446649 M 0.0 **** 0.0
10409 O 41.92305 29.761194 2.350964 O 0.0 **** 0.0
10410 H 41.229794 29.534101 2.970685 H 0.0 **** 0.0
10411 H 41.638363 30.589784 1.96545 H 0.0 **** 0.0
10412 M 41.797861 29.838193 2.380946 M 0.0 **** 0.0
10413 O 21.871472 40.927766 21.176115 O 0.0 **** 0.0
10414 H 21.017925 40.509597 21.289345 H 0.0 **** 0.0
10415 H 22.08043 40.800034 20.250777 H 0.0 **** 0.0
10416 M 21.788957 40.857884 21.072155 M 0.0 **** 0.0
10417 O 13.367547 39.885703 1.767134 O 0.0 **** 0.0
10418 H 13.106231 38.978233 1.923469 H 0.0 **** 0.0
10419 H 12.64495 40.260116 1.26325 H 0.0 **** 0.0
10420 M 13.241594 39.817465 1.722643 M 0.0 **** 0.0
10421 O 25.23861 24.966147 8.534805 O 0.0 **** 0.0
10422 H 25.933207 25.345501 7.996423 H 0.0 **** 0.0
10423 H 25.050421 25.636853 9.191285 H 0.0 **** 0.0
10424 M 25.303437 25.100568 8.549923 M 0.0 **** 0.0
10425 O 28.520883 9.443299 17.877053 O 0.0 **** 0.0
10426 H 29.457423 9.463455 17.680289 H 0.0 **** 0.0
10427 H 28.345337 10.286187 18.295327 H 0.0 **** 0.0
10428 M 28.6183 9.55378 17.905409 M 0.0 **** 0.0
10429 O 21.52932 9.916626 44.563953 O 0.0 **** 0.0
10430 H 20.694421 10.372933 44.668629 H 0.0 **** 0.0
10431 H 21.353082 9.023135 44.858644 H 0.0 **** 0.0
10432 M 21.399882 9.860661 44.615077 M 0.0 **** 0.0
10433 O 23.949628 39.835832 18.067077 O 0.0 **** 0.0
10434 H 24.648004 39.184136 18.005498 H 0.0 **** 0.0
10435 H 24.408109 40.673814 18.128802 H 0.0 **** 0.0
10436 M 24.09772 39.859679 18.067096 M 0.0 **** 0.0
10437 O 41.09106 9.585728 5.839469 O 0.0 **** 0.0
10438 H 40.800422 9.256094 4.989117 H 0.0 **** 0.0
10439 H 41.368367 8.804328 6.31774 H 0.0 **** 0.0
10440 M 41.089354 9.443502 5.791838 M 0.0 **** 0.0
10441 O 25.3375 6.508778 11.894491 O 0.0 **** 0.0
10442 H 25.034353 5.932104 11.193223 H 0.0 **** 0.0
10443 H 25.570994 7.324091 11.450674 H 0.0 **** 0.0
10444 M 25.328584 6.539327 11.747906 M 0.0 **** 0.0
10445 O 15.263133 47.487757 13.459891 O 0.0 **** 0.0
10446 H 15.553815 46.584944 13.58897 H 0.0 **** 0.0
10447 H 16.069703 48.003121 13.468451 H 0.0 **** 0.0
10448 M 15.403595 47.438158 13.47751 M 0.0 **** 0.0
10449 O 21.978167 41.950542 35.059486 O 0.0 **** 0.0
10450 H 21.48512 41.174363 34.79363 H 0.0 **** 0.0
10451 H 21.417197 42.382115 35.703913 H 0.0 **** 0.0
10452 M 21.84324 41.906428 35.107948 M 0.0 **** 0.0
10453 O 6.403349 5.304755 38.198064 O 0.0 **** 0.0
10454 H 6.369555 5.839394 37.404813 H 0.0 **** 0.0
10455 H 5.528696 5.384492 38.578658 H 0.0 **** 0.0
10456 M 6.287056 5.383403 38.145239 M 0.0 **** 0.0
10457 O 4.415187 4.64446 36.567593 O 0.0 **** 0.0
10458 H 3.631311 4.249074 36.948956 H 0.0 **** 0.0
10459 H 4.839193 3.928498 36.09447 H 0.0 **** 0.0
10460 M 4.369119 4.502193 36.555847 M 0.0 **** 0.0
10461 O 16.665018 39.749538 2.169342 O 0.0 **** 0.0
10462 H 17.493424 39.883691 1.708934 H 0.0 **** 0.0
10463 H 16.250853 40.61248 2.174526 H 0.0 **** 0.0
10464 M 16.718046 39.877179 2.111068 M 0.0 **** 0.0
10465 O 28.445888 40.239055 47.745536 O 0.0 **** 0.0
10466 H 28.521625 39.427103 47.244312 H 0.0 **** 0.0
10467 H 29.350603 40.502208 47.914265 H 0.0 **** 0.0
10468 M 28.571398 40.168802 47.702972 M 0.0 **** 0.0
10469 O 46.639491 21.078141 28.058081 O 0.0 **** 0.0
10470 H 45.743578 21.207084 28.369435 H 0.0 **** 0.0
10471 H 46.671303 20.159095 27.792428 H 0.0 **** 0.0
10472 M 46.528875 20.976998 28.063931 M 0.0 **** 0.0
10473 O 7.570087 48.002533 24.504582 O 0.0 **** 0.0
10474 H 8.467314 47.957584 24.835023 H 0.0 **** 0.0
10475 H 7.267607 47.094388 24.507171 H 0.0 **** 0.0
10476 M 7.646222 47.880525 24.547214 M 0.0 **** 0.0
10477 O 33.212729 27.197464 22.574228 O 0.0 **** 0.0
10478 H 33.505617 26.290937 22.4812 H 0.0 **** 0.0
10479 H 32.377923 27.133543 23.03817 H 0.0 **** 0.0
10480 M 33.143357 27.073235 22.62171 M 0.0 **** 0.0
10481 O 22.652773 37.453482 3.218997 O 0.0 **** 0.0
10482 H 22.959062 36.763313 2.630709 H 0.0 **** 0.0
10483 H 22.741148 38.259344 2.710072 H 0.0 **** 0.0
10484 M 22.703295 37.468293 3.07854 M 0.0 **** 0.0
10485 O 7.204978 29.481917 3.001091 O 0.0 **** 0.0
10486 H 8.137729 29.27095 2.959889 H 0.0 **** 0.0
10487 H 6.833469 28.815383 3.578968 H 0.0 **** 0.0
10488 M 7.276824 29.369586 3.069792 M 0.0 **** 0.0
10489 O 41.843354 22.411361 39.45667 O 0.0 **** 0.0
10490 H 41.012257 22.197322 39.880575 H 0.0 **** 0.0
10491 H 42.039187 21.64806 38.913301 H 0.0 **** 0.0
10492 M 41.762032 22.286249 39.441377 M 0.0 **** 0.0
10493 O 1.974312 23.221066 23.078813 O 0.0 **** 0.0
10494 H 2.261142 23.806099 23.780021 H 0.0 **** 0.0
10495 H 1.494876 23.787786 22.474497 H 0.0 **** 0.0
10496 M 1.949656 23.368505 23.091216 M 0.0 **** 0.0
10497 O 42.30132 20.097164 8.241442 O 0.0 **** 0.0
10498 H 41.847316 19.317936 7.920642 H 0.0 **** 0.0
10499 H 43.226367 19.851199 8.245823 H 0.0 **** 0.0
10500 M 42.36162 19.965926 8.200936 M 0.0 **** 0.0
10501 O 29.542776 28.78029 14.277317 O 0.0 **** 0.0
10502 H 30.251784 28.8665 13.640053 H 0.0 **** 0.0
10503 H 29.125636 27.946397 14.060879 H 0.0 **** 0.0
10504 M 29.580139 28.684577 14.168032 M 0.0 **** 0.0
10505 O 14.015249 10.342627 14.381729 O 0.0 **** 0.0
10506 H 13.385675 11.035304 14.581889 H 0.0 **** 0.0
10507 H 13.500044 9.536223 14.404211 H 0.0 **** 0.0
10508 M 13.868703 10.328069 14.41023 M 0.0 **** 0.0
10509 O 17.410247 20.435874 4.973688 O 0.0 **** 0.0
10510 H 17.607964 20.940081 4.18444 H 0.0 **** 0.0
10511 H 16.458403 20.335434 4.962132 H 0.0 **** 0.0
10512 M 17.313709 20.487561 4.871175 M 0.0 **** 0.0
10513 O 12.264088 12.559381 4.199531 O 0.0 **** 0.0
10514 H 12.845201 12.225594 4.882994 H 0.0 **** 0.0
10515 H 11.727777 11.806292 3.951629 H 0.0 **** 0.0
10516 M 12.269823 12.420247 4.255288 M 0.0 **** 0.0
10517 O 5.101352 30.463689 37.085482 O 0.0 **** 0.0
10518 H 4.798073 29.569112 36.930619 H 0.0 **** 0.0
10519 H 4.324504 30.930551 37.39334 H 0.0 **** 0.0
10520 M 4.963082 30.408936 37.105067 M 0.0 **** 0.0
10521 O 4.805059 22.854425 19.002085 O 0.0 **** 0.0
10522 H 5.369291 23.613478 18.854743 H 0.0 **** 0.0
10523 H 5.341036 22.10373 18.746322 H 0.0 **** 0.0
10524 M 4.9459 22.855495 18.950482 M 0.0 **** 0.0
10525 O 19.967613 27.914519 22.044932 O 0.0 **** 0.0
10526 H 19.716231 28.760648 22.415206 H 0.0 **** 0.0
10527 H 19.138274 27.456748 21.907559 H 0.0 **** 0.0
10528 M 19.829267 27.964234 22.074746 M 0.0 **** 0.0
10529 O 8.876025 31.624062 25.443052 O 0.0 **** 0.0
10530 H 9.3495 32.116109 24.772277 H 0.0 **** 0.0
10531 H 9.378638 31.766879 26.245057 H 0.0 **** 0.0
10532 M 9.000977 31.705332 25.459851 M 0.0 **** 0.0
10533 O 46.203365 9.629451 4.613106 O 0.0 **** 0.0
10534 H 45.44586 9.518528 4.038554 H 0.0 **** 0.0
10535 H 46.95788 9.592766 4.025237 H 0.0 **** 0.0
10536 M 46.202983 9.610556 4.464302 M 0.0 **** 0.0
10537 O 47.724654 31.376313 27.985293 O 0.0 **** 0.0
10538 H 47.005417 30.932771 28.434956 H 0.0 **** 0.0
10539 H 47.908652 30.824898 27.224823 H 0.0 **** 0.0
10540 M 47.656137 31.248946 27.945506 M 0.0 **** 0.0
10541 O 11.717249 39.257637 5.694916 O 0.0 **** 0.0
10542 H 11.124042 40.008812 5.703282 H 0.0 **** 0.0
10543 H 11.138971 38.494997 5.709133 H 0.0 **** 0.0
10544 M 11.567285 39.256169 5.697807 M 0.0 **** 0.0
10545 O 0.415767 11.208765 34.031856 O 0.0 **** 0.0
10546 H 0.97312 11.471669 34.764295 H 0.0 **** 0.0
10547 H -0.00024 12.021077 33.74321 H 0.0 **** 0.0
10548 M 0.433861 11.346406 34.088667 M 0.0 **** 0.0
10549 O 37.792626 6.380318 47.972592 O 0.0 **** 0.0
10550 H 37.427253 7.264628 47.999533 H 0.0 **** 0.0
10551 H 37.264484 5.922251 47.318781 H 0.0 **** 0.0
10552 M 37.678245 6.434882 47.892345 M 0.0 **** 0.0
10553 O 24.229034 27.790546 26.958363 O 0.0 **** 0.0
10554 H 23.799859 26.951808 27.127349 H 0.0 **** 0.0
10555 H 25.031083 27.559612 26.489731 H 0.0 **** 0.0
10556 M 24.276767 27.653615 26.920004 M 0.0 **** 0.0
10557 O 27.536187 11.009667 22.060357 O 0.0 **** 0.0
10558 H 28.292317 11.106111 21.481396 H 0.0 **** 0.0
10559 H 27.581206 10.103343 22.364952 H 0.0 **** 0.0
10560 M 27.638744 10.905992 22.025235 M 0.0 **** 0.0
10561 O 21.023784 47.173691 11.76143 O 0.0 **** 0.0
10562 H 21.694047 46.509044 11.920239 H 0.0 **** 0.0
10563 H 21.495547 48.005428 11.804803 H 0.0 **** 0.0
10564 M 21.169978 47.195081 11.787312 M 0.0 **** 0.0
10565 O 7.850218 24.214937 19.526937 O 0.0 **** 0.0
10566 H 7.16559 23.866874 20.098221 H 0.0 **** 0.0
10567 H 7.38994 24.465678 18.725999 H 0.0 **** 0.0
10568 M 7.703656 24.202479 19.497538 M 0.0 **** 0.0
10569 O 41.350664 29.680435 33.053564 O 0.0 **** 0.0
10570 H 40.642289 30.109229 32.573388 H 0.0 **** 0.0
10571 H 41.731016 30.375083 33.591173 H 0.0 **** 0.0
10572 M 41.308673 29.82425 33.060916 M 0.0 **** 0.0
10573 O 28.895166 38.003067 22.344086 O 0.0 **** 0.0
10574 H 29.002838 38.414716 23.201513 H 0.0 **** 0.0
10575 H 29.61018 38.35809 21.815936 H 0.0 **** 0.0
10576 M 29.00048 38.101211 22.386238 M 0.0 **** 0.0
10577 O 1.499254 24.163125 28.462084 O 0.0 **** 0.0
10578 H 1.049142 24.562832 29.206303 H 0.0 **** 0.0
10579 H 2.429625 24.289738 28.648111 H 0.0 **** 0.0
10580 M 1.560733 24.2305 28.581167 M 0.0 **** 0.0
10581 O 6.025466 24.546153 36.946374 O 0.0 **** 0.0
10582 H 6.980933 24.588506 36.985342 H 0.0 **** 0.0
10583 H 5.755808 25.431246 36.701171 H 0.0 **** 0.0
10584 M 6.113258 24.664878 36.919973 M 0.0 **** 0.0
10585 O 40.894519 8.405003 20.708792 O 0.0 **** 0.0
10586 H 40.330741 7.638803 20.602398 H 0.0 **** 0.0
10587 H 40.347364 9.144253 20.443538 H 0.0 **** 0.0
10588 M 40.752306 8.401553 20.661217 M 0.0 **** 0.0
10589 O 11.119129 3.070877 11.735519 O 0.0 **** 0.0
10590 H 11.376669 2.20621 12.055287 H 0.0 **** 0.0
10591 H 11.920009 3.592894 11.78366 H 0.0 **** 0.0
10592 M 11.25462 3.027014 11.782616 M 0.0 **** 0.0
10593 O 24.897786 26.723397 22.650512 O 0.0 **** 0.0
10594 H 25.469844 27.390525 22.271146 H 0.0 **** 0.0
10595 H 24.043789 27.150281 22.718966 H 0.0 **** 0.0
10596 M 24.861694 26.863444 22.610711 M 0.0 **** 0.0
10597 O 23.432359 3.864192 34.788168 O 0.0 **** 0.0
10598 H 23.408431 3.180818 34.118349 H 0.0 **** 0.0
10599 H 23.428577 3.387112 35.617993 H 0.0 **** 0.0
10600 M 23.428812 3.715639 34.808651 M 0.0 **** 0.0
10601 O 27.483901 35.629965 20.560997 O 0.0 **** 0.0
10602 H 27.589833 36.580922 20.587229 H 0.0 **** 0.0
10603 H 28.266858 35.313615 20.110299 H 0.0 **** 0.0
10604 M 27.59769 35.711203 20.50666 M 0.0 **** 0.0
10605 O 24.883955 13.778279 12.170069 O 0.0 **** 0.0
10606 H 24.373437 13.147368 11.662574 H 0.0 **** 0.0
10607 H 24.318066 14.547494 12.235701 H 0.0 **** 0.0
10608 M 24.746161 13.795984 12.113505 M 0.0 **** 0.0
10609 O 17.347298 2.411514 21.672282 O 0.0 **** 0.0
10610 H 16.626686 2.820135 21.192723 H 0.0 **** 0.0
10611 H 17.225748 1.472244 21.533618 H 0.0 **** 0.0
10612 M 17.23949 2.343584 21.593142 M 0.0 **** 0.0
10613 O 36.302087 18.042315 23.520153 O 0.0 **** 0.0
10614 H 36.18485 18.987413 23.616456 H 0.0 **** 0.0
10615 H 36.718636 17.767686 24.337034 H 0.0 **** 0.0
10616 M 36.340403 18.128143 23.637052 M 0.0 **** 0.0
10617 O 5.990772 18.506931 23.652235 O 0.0 **** 0.0
10618 H 5.112021 18.849459 23.815638 H 0.0 **** 0.0
10619 H 5.845565 17.69721 23.162853 H 0.0 **** 0.0
10620 M 5.859692 18.447124 23.610506 M 0.0 **** 0.0
10621 O 25.946428 15.467562 0.258897 O 0.0 **** 0.0
10622 H 26.179098 14.541354 0.323936 H 0.0 **** 0.0
10623 H 25.024945 15.465909 -0.00013 H 0.0 **** 0.0
10624 M 25.858251 15.348784 0.234064 M 0.0 **** 0.0
10625 O 33.896579 10.977466 36.650766 O 0.0 **** 0.0
10626 H 33.376283 11.681058 36.262849 H 0.0 **** 0.0
10627 H 33.25967 10.292895 36.855554 H 0.0 **** 0.0
10628 M 33.748442 10.979901 36.627323 M 0.0 **** 0.0
10629 O 36.263555 31.726297 1.613751 O 0.0 **** 0.0
10630 H 36.031883 31.39485 0.746168 H 0.0 **** 0.0
10631 H 36.03964 31.012575 2.210988 H 0.0 **** 0.0
10632 M 36.205234 31.592502 1.579143 M 0.0 **** 0.0
10633 O 3.224464 41.395214 17.138075 O 0.0 **** 0.0
10634 H 2.704162 40.59701 17.046507 H 0.0 **** 0.0
10635 H 2.959575 41.940639 16.397417 H 0.0 **** 0.0
10636 M 3.12395 41.362855 17.03154 M 0.0 **** 0.0
10637 O 45.346696 13.913699 19.840536 O 0.0 **** 0.0
10638 H 45.021904 13.128672 19.399547 H 0.0 **** 0.0
10639 H 46.118999 14.169967 19.336448 H 0.0 **** 0.0
10640 M 45.403983 13.846011 19.719554 M 0.0 **** 0.0
10641 O 29.044197 25.517869 24.614529 O 0.0 **** 0.0
10642 H 29.623794 25.996713 24.022073 H 0.0 **** 0.0
10643 H 28.910664 24.6716 24.187649 H 0.0 **** 0.0
10644 M 29.101299 25.470834 24.484041 M 0.0 **** 0.0
10645 O 1.51756 43.66175 16.599835 O 0.0 **** 0.0
10646 H 0.690502 43.47164 16.157046 H 0.0 **** 0.0
10647 H 1.593669 44.615354 16.567047 H 0.0 **** 0.0
10648 M 1.421429 43.759487 16.538955 M 0.0 **** 0.0
10649 O 23.467977 45.041669 37.011326 O 0.0 **** 0.0
10650 H 24.279933 44.73498 37.414933 H 0.0 **** 0.0
10651 H 22.773702 44.649127 37.540591 H 0.0 **** 0.0
10652 M 23.483041 44.952159 37.130746 M 0.0 **** 0.0
10653 O 35.195221 26.872926 1.569564 O 0.0 **** 0.0
10654 H 35.471302 26.96419 0.657599 H 0.0 **** 0.0
10655 H 34.267834 26.641672 1.517566 H 0.0 **** 0.0
10656 M 35.111846 26.855006 1.446165 M 0.0 **** 0.0
10657 O 13.018214 6.24375 5.408733 O 0.0 **** 0.0
10658 H 12.083931 6.114765 5.245313 H 0.0 **** 0.0
10659 H 13.223248 7.076984 4.984574 H 0.0 **** 0.0
10660 M 12.924861 6.333903 5.333516 M 0.0 **** 0.0
10661 O 3.890172 32.324068 35.006098 O 0.0 **** 0.0
10662 H 3.396279 31.72391 35.564765 H 0.0 **** 0.0
10663 H 4.806703 32.092614 35.15653 H 0.0 **** 0.0
10664 M 3.944275 32.217612 35.096872 M 0.0 **** 0.0
10665 O 21.70979 21.709864 28.38232 O 0.0 **** 0.0
10666 H 21.260509 20.874925 28.513662 H 0.0 **** 0.0
10667 H 22.640047 21.484364 28.381931 H 0.0 **** 0.0
10668 M 21.771361 21.574115 28.399083 M 0.0 **** 0.0
10669 O 31.817626 6.840134 25.391496 O 0.0 **** 0.0
10670 H 31.725953 7.780568 25.238498 H 0.0 **** 0.0
10671 H 32.760737 6.702088 25.479324 H 0.0 **** 0.0
10672 M 31.926621 6.94285 25.383153 M 0.0 **** 0.0
10673 O 41.428051 24.335497 1.284857 O 0.0 **** 0.0
10674 H 42.123841 24.939523 1.025515 H 0.0 **** 0.0
10675 H 41.636788 24.10323 2.189683 H 0.0 **** 0.0
10676 M 41.543842 24.383087 1.367487 M 0.0 **** 0.0
10677 O 32.799779 18.206042 45.265693 O 0.0 **** 0.0
10678 H 33.513198 17.616101 45.50907 H 0.0 **** 0.0
10679 H 32.492467 18.566877 46.09731 H 0.0 **** 0.0
10680 M 32.851766 18.176713 45.403306 M 0.0 **** 0.0
10681 O 0.847894 21.334435 12.873373 O 0.0 **** 0.0
10682 H 0.733983 20.630051 13.511414 H 0.0 **** 0.0
10683 H -0.036607 21.668621 12.724358 H 0.0 **** 0.0
10684 M 0.720085 21.287045 12.935975 M 0.0 **** 0.0
10685 O 23.909372 30.069945 21.423164 O 0.0 **** 0.0
10686 H 24.538148 29.982123 22.139513 H 0.0 **** 0.0
10687 H 23.177603 30.555215 21.804288 H 0.0 **** 0.0
10688 M 23.896188 30.120823 21.563654 M 0.0 **** 0.0
10689 O 13.219362 9.183108 34.61588 O 0.0 **** 0.0
10690 H 12.339575 8.806021 34.612748 H 0.0 **** 0.0
10691 H 13.80491 8.42637 34.589241 H 0.0 **** 0.0
10692 M 13.181695 9.037964 34.612069 M 0.0 **** 0.0
10693 O 34.177873 7.400208 8.974521 O 0.0 **** 0.0
10694 H 35.017948 6.942136 9.000469 H 0.0 **** 0.0
10695 H 34.398419 8.315843 9.145403 H 0.0 **** 0.0
10696 M 34.313646 7.458782 8.999718 M 0.0 **** 0.0
10697 O 23.103781 14.802931 14.997278 O 0.0 **** 0.0
10698 H 22.211224 14.673335 14.676692 H 0.0 **** 0.0
10699 H 23.649493 14.288556 14.402428 H 0.0 **** 0.0
10700 M 23.05938 14.720495 14.880091 M 0.0 **** 0.0
10701 O 37.774449 1.776251 38.853463 O 0.0 **** 0.0
10702 H 36.909411 2.099553 38.601642 H 0.0 **** 0.0
10703 H 38.032754 1.197879 38.135832 H 0.0 **** 0.0
10704 M 37.69678 1.743598 38.729361 M 0.0 **** 0.0
10705 O 21.705163 23.397407 16.439288 O 0.0 **** 0.0
10706 H 22.328057 22.812549 16.007811 H 0.0 **** 0.0
10707 H 21.713189 24.192206 15.905941 H 0.0 **** 0.0
10708 M 21.785928 23.424282 16.315779 M 0.0 **** 0.0
10709 O 30.670734 20.981749 31.059791 O 0.0 **** 0.0
10710 H 31.417473 21.563591 31.20146 H 0.0 **** 0.0
10711 H 31.062973 20.12735 30.879845 H 0.0 **** 0.0
10712 M 30.816538 20.946858 31.054891 M 0.0 **** 0.0
10713 O 12.348346 36.225093 44.052269 O 0.0 **** 0.0
10714 H 12.428115 36.153491 45.003447 H 0.0 **** 0.0
10715 H 12.538625 35.344631 43.728524 H 0.0 **** 0.0
10716 M 12.382915 36.103217 44.132588 M 0.0 **** 0.0
10717 O 34.731608 42.825002 2.17086 O 0.0 **** 0.0
10718 H 34.639753 43.772689 2.269256 H 0.0 **** 0.0
10719 H 33.832623 42.496409 2.161804 H 0.0 **** 0.0
10720 M 34.604768 42.904254 2.182297 M 0.0 **** 0.0
10721 O 27.950227 30.350084 33.782993 O 0.0 **** 0.0
10722 H 27.86941 29.93767 34.643 H 0.0 **** 0.0
10723 H 27.349848 29.85762 33.223302 H 0.0 **** 0.0
10724 M 27.863025 30.234248 33.821437 M 0.0 **** 0.0
10725 O 45.289064 21.629429 22.209985 O 0.0 **** 0.0
10726 H 45.796181 20.964702 21.743939 H 0.0 **** 0.0
10727 H 45.946807 22.170624 22.646689 H 0.0 **** 0.0
10728 M 45.43818 21.613615 22.206229 M 0.0 **** 0.0
10729 O 33.676441 29.384516 32.508986 O 0.0 **** 0.0
10730 H 34.272794 28.649726 32.652776 H 0.0 **** 0.0
10731 H 33.163381 29.130624 31.741824 H 0.0 **** 0.0
10732 M 33.687103 29.257952 32.429186 M 0.0 **** 0.0
10733 O 3.354946 9.018863 9.869435 O 0.0 **** 0.0
10734 H 2.909947 9.317402 10.66258 H 0.0 **** 0.0
10735 H 3.592537 8.110389 10.055056 H 0.0 **** 0.0
10736 M 3.328395 8.940784 9.994729 M 0.0 **** 0.0
10737 O 12.613658 25.155 20.75435 O 0.0 **** 0.0
10738 H 12.354183 25.709602 21.490093 H 0.0 **** 0.0
10739 H 13.335717 25.627767 20.340403 H 0.0 **** 0.0
10740 M 12.672875 25.286516 20.795544 M 0.0 **** 0.0
10741 O 12.266664 10.510453 36.851666 O 0.0 **** 0.0
10742 H 12.911604 11.209323 36.960574 H 0.0 **** 0.0
10743 H 12.789398 9.722657 36.702151 H 0.0 **** 0.0
10744 M 12.416141 10.499069 36.846468 M 0.0 **** 0.0
10745 O 41.940108 40.708211 32.381098 O 0.0 **** 0.0
10746 H 41.089227 41.060039 32.119472 H 0.0 **** 0.0
10747 H 42.367414 40.475694 31.556736 H 0.0 **** 0.0
10748 M 41.885885 40.723484 32.242078 M 0.0 **** 0.0
10749 O 21.112277 46.315227 17.44188 O 0.0 **** 0.0
10750 H 21.082865 46.533249 18.373454 H 0.0 **** 0.0
10751 H 20.860782 47.125037 16.997823 H 0.0 **** 0.0
10752 M 21.076317 46.446802 17.504288 M 0.0 **** 0.0
10753 O 2.655429 31.43389 40.873025 O 0.0 **** 0.0
10754 H 1.831308 30.947152 40.861236 H 0.0 **** 0.0
10755 H 2.414822 32.319793 40.601891 H 0.0 **** 0.0
10756 M 2.51913 31.484988 40.836807 M 0.0 **** 0.0
10757 O 0.001106 22.191635 30.146741 O 0.0 **** 0.0
10758 H 0.027197 21.276958 30.427655 H 0.0 **** 0.0
10759 H 0.016356 22.149565 29.190589 H 0.0 **** 0.0
10760 M 0.006398 22.069159 30.060302 M 0.0 **** 0.0
10761 O 23.249809 32.325613 24.25438 O 0.0 **** 0.0
10762 H 22.702353 33.08542 24.452403 H 0.0 **** 0.0
10763 H 23.063088 32.12793 23.336619 H 0.0 **** 0.0
10764 M 23.155825 32.397572 24.162245 M 0.0 **** 0.0
10765 O 38.751133 9.660311 37.50186 O 0.0 **** 0.0
10766 H 39.579579 9.192267 37.605976 H 0.0 **** 0.0
10767 H 38.980964 10.582768 37.61357 H 0.0 **** 0.0
10768 M 38.886606 9.718482 37.529488 M 0.0 **** 0.0
10769 O 47.995218 38.28941 31.166856 O 0.0 **** 0.0
10770 H 48.000004 38.942013 30.466631 H 0.0 **** 0.0
10771 H 47.262365 38.544239 31.727407 H 0.0 **** 0.0
10772 M 47.902016 38.405573 31.148976 M 0.0 **** 0.0
10773 O 34.796074 28.824137 24.619951 O 0.0 **** 0.0
10774 H 34.614473 28.058477 24.074961 H 0.0 **** 0.0
10775 H 35.713436 29.032461 24.443102 H 0.0 **** 0.0
10776 M 34.89026 28.752791 24.527546 M 0.0 **** 0.0
10777 O 1.616895 41.221631 3.489388 O 0.0 **** 0.0
10778 H 2.508688 41.560983 3.413395 H 0.0 **** 0.0
10779 H 1.293023 41.580793 4.315426 H 0.0 **** 0.0
10780 M 1.689596 41.311049 3.585403 M 0.0 **** 0.0
10781 O 3.307827 29.11166 47.990797 O 0.0 **** 0.0
10782 H 2.351478 29.075815 48.009244 H 0.0 **** 0.0
10783 H 3.51266 30.046528 47.973686 H 0.0 **** 0.0
10784 M 3.211624 29.226746 47.990968 M 0.0 **** 0.0
10785 O 25.356439 46.077504 27.720006 O 0.0 **** 0.0
10786 H 26.218761 45.692194 27.564556 H 0.0 **** 0.0
10787 H 25.516699 46.776642 28.353844 H 0.0 **** 0.0
10788 M 25.487342 46.117678 27.781245 M 0.0 **** 0.0
10789 O 44.126606 10.35538 16.358717 O 0.0 **** 0.0
10790 H 45.054954 10.39507 16.128882 H 0.0 **** 0.0
10791 H 43.867471 9.456439 16.156272 H 0.0 **** 0.0
10792 M 44.212274 10.245385 16.30338 M 0.0 **** 0.0
10793 O 35.927198 40.910446 8.841325 O 0.0 **** 0.0
10794 H 35.052757 40.889735 9.230107 H 0.0 **** 0.0
10795 H 35.911355 40.220469 8.178068 H 0.0 **** 0.0
10796 M 35.813231 40.819469 8.806188 M 0.0 **** 0.0
10797 O 35.938496 46.599398 16.383021 O 0.0 **** 0.0
10798 H 36.465132 45.805898 16.479148 H 0.0 **** 0.0
10799 H 36.415201 47.127725 15.742824 H 0.0 **** 0.0
10800 M 36.066936 46.565453 16.313373 M 0.0 **** 0.0
10801 O 45.729304 21.002398 41.401402 O 0.0 **** 0.0
10802 H 45.822873 20.054649 41.305249 H 0.0 **** 0.0
10803 H 45.785463 21.154619 42.344749 H 0.0 **** 0.0
10804 M 45.748471 20.90056 41.509854 M 0.0 **** 0.0
10805 O 4.195914 42.004567 36.0384 O 0.0 **** 0.0
10806 H 3.242723 42.075704 35.987446 H 0.0 **** 0.0
10807 H 4.366279 41.062673 36.044741 H 0.0 **** 0.0
10808 M 4.095702 41.893099 36.032689 M 0.0 **** 0.0
10809 O 14.973471 10.599569 28.888896 O 0.0 **** 0.0
10810 H 14.073654 10.351824 29.101455 H 0.0 **** 0.0
10811 H 14.97794 11.555334 28.941069 H 0.0 **** 0.0
10812 M 14.858855 10.690205 28.922785 M 0.0 **** 0.0
10813 O 38.235156 2.728819 34.069213 O 0.0 **** 0.0
10814 H 37.510976 3.338945 34.208992 H 0.0 **** 0.0
10815 H 38.618285 2.608014 34.938032 H 0.0 **** 0.0
10816 M 38.191497 2.791458 34.198327 M 0.0 **** 0.0
10817 O 46.32225 14.467042 44.134215 O 0.0 **** 0.0
10818 H 45.486386 14.144086 44.470755 H 0.0 **** 0.0
10819 H 46.111343 14.826061 43.272326 H 0.0 **** 0.0
10820 M 46.18825 14.471659 44.066964 M 0.0 **** 0.0
10821 O 39.727478 22.660515 3.275788 O 0.0 **** 0.0
10822 H 39.469427 23.578307 3.361202 H 0.0 **** 0.0
10823 H 39.938772 22.555966 2.348074 H 0.0 **** 0.0
10824 M 39.721493 22.76462 3.167963 M 0.0 **** 0.0
10825 O 11.422237 27.434043 6.187925 O 0.0 **** 0.0
10826 H 11.913418 26.628592 6.34985 H 0.0 **** 0.0
10827 H 12.094092 28.107144 6.079419 H 0.0 **** 0.0
10828 M 11.57112 27.4171 6.194763 M 0.0 **** 0.0
10829 O 37.841974 38.23064 10.856179 O 0.0 **** 0.0
10830 H 38.559714 38.664006 11.317992 H 0.0 **** 0.0
10831 H 37.052432 38.666725 11.176619 H 0.0 **** 0.0
10832 M 37.832782 38.34194 10.956317 M 0.0 **** 0.0
10833 O 37.121295 0.852073 14.964198 O 0.0 **** 0.0
10834 H 37.457207 1.74728 14.919522 H 0.0 **** 0.0
10835 H 36.190119 0.95468 15.1607 H 0.0 **** 0.0
10836 M 37.045094 0.979806 14.983634 M 0.0 **** 0.0
10837 O 32.500161 29.645954 20.427345 O 0.0 **** 0.0
10838 H 32.884865 28.833672 20.756632 H 0.0 **** 0.0
10839 H 32.253725 30.131244 21.214741 H 0.0 **** 0.0
10840 M 32.517861 29.604095 20.570295 M 0.0 **** 0.0
10841 O 18.502125 24.596768 9.454336 O 0.0 **** 0.0
10842 H 18.820893 24.839692 8.585082 H 0.0 **** 0.0
10843 H 19.059949 25.085254 10.059682 H 0.0 **** 0.0
10844 M 18.61434 24.690398 9.420552 M 0.0 **** 0.0
10845 O 30.764742 19.83968 11.212129 O 0.0 **** 0.0
10846 H 30.591761 20.779832 11.162923 H 0.0 **** 0.0
10847 H 29.897412 19.438714 11.268638 H 0.0 **** 0.0
10848 M 30.631569 19.908703 11.213064 M 0.0 **** 0.0
10849 O 19.61495 30.852797 10.987393 O 0.0 **** 0.0
10850 H 20.556295 30.800195 10.822073 H 0.0 **** 0.0
10851 H 19.28558 29.978379 10.779695 H 0.0 **** 0.0
10852 M 19.693291 30.734127 10.939642 M 0.0 **** 0.0
10853 O 21.861924 43.885856 26.219043 O 0.0 **** 0.0
10854 H 20.983177 43.944985 26.593925 H 0.0 **** 0.0
10855 H 21.829594 43.115361 25.652014 H 0.0 **** 0.0
10856 M 21.745295 43.794792 26.194446 M 0.0 **** 0.0
10857 O 46.94775 35.650513 44.01672 O 0.0 **** 0.0
10858 H 46.618656 34.885472 44.488565 H 0.0 **** 0.0
10859 H 47.738313 35.33894 43.576081 H 0.0 **** 0.0
10860 M 47.006824 35.512693 44.020715 M 0.0 **** 0.0
10861 O 36.271004 28.915841 45.382307 O 0.0 **** 0.0
10862 H 36.565182 28.497855 46.191613 H 0.0 **** 0.0
10863 H 36.991858 28.781487 44.767045 H 0.0 **** 0.0
10864 M 36.400941 28.845134 45.407147 M 0.0 **** 0.0
10865 O 39.707976 30.378959 24.293498 O 0.0 **** 0.0
10866 H 38.908077 29.959087 24.609879 H 0.0 **** 0.0
10867 H 39.46772 31.298591 24.180434 H 0.0 **** 0.0
10868 M 39.574823 30.442935 24.319525 M 0.0 **** 0.0
10869 O 34.524835 43.283877 -0.012301 O 0.0 **** 0.0
10870 H 35.454543 43.067616 0.05913 H 0.0 **** 0.0
10871 H 34.081254 42.435728 -0.022656 H 0.0 **** 0.0
10872 M 34.587065 43.147619 -0.004483 M 0.0 **** 0.0
10873 O 10.400883 45.716855 40.916833 O 0.0 **** 0.0
10874 H 9.521975 46.073606 40.788463 H 0.0 **** 0.0
10875 H 10.728754 46.16189 41.698289 H 0.0 **** 0.0
10876 M 10.330343 45.819493 41.000436 M 0.0 **** 0.0
10877 O 7.372402 12.601536 23.869227 O 0.0 **** 0.0
10878 H 6.742424 12.828049 23.185087 H 0.0 **** 0.0
10879 H 6.926205 12.818651 24.687761 H 0.0 **** 0.0
10880 M 7.234638 12.658326 23.886431 M 0.0 **** 0.0
10881 O 36.659052 46.897133 25.703491 O 0.0 **** 0.0
10882 H 37.561642 47.033274 25.991635 H 0.0 **** 0.0
10883 H 36.286436 47.777625 25.657442 H 0.0 **** 0.0
10884 M 36.726896 47.027275 25.734482 M 0.0 **** 0.0
10885 O 15.437231 46.542676 4.562975 O 0.0 **** 0.0
10886 H 15.703486 45.623334 4.550847 H 0.0 **** 0.0
10887 H 16.260239 47.031131 4.545727 H 0.0 **** 0.0
10888 M 15.576671 46.487517 4.559215 M 0.0 **** 0.0
10889 O 4.617577 7.703615 14.897394 O 0.0 **** 0.0
10890 H 3.668517 7.682315 14.774675 H 0.0 **** 0.0
10891 H 4.879007 8.573853 14.596447 H 0.0 **** 0.0
10892 M 4.529551 7.81229 14.843159 M 0.0 **** 0.0
10893 O 22.216703 15.121819 26.753682 O 0.0 **** 0.0
10894 H 22.007603 15.778269 26.089167 H 0.0 **** 0.0
10895 H 22.419919 15.630936 27.538368 H 0.0 **** 0.0
10896 M 22.21595 15.271026 26.769065 M 0.0 **** 0.0
10897 O -0.022268 27.369967 6.743246 O 0.0 **** 0.0
10898 H 0.200522 28.296155 6.649603 H 0.0 **** 0.0
10899 H 0.359973 26.95198 5.97162 H 0.0 **** 0.0
10900 M 0.055184 27.435024 6.632481 M 0.0 **** 0.0
10901 O 15.330332 28.774327 7.159685 O 0.0 **** 0.0
10902 H 14.95656 28.48238 6.328246 H 0.0 **** 0.0
10903 H 15.149127 29.713804 7.187552 H 0.0 **** 0.0
10904 M 15.259288 28.857219 7.056817 M 0.0 **** 0.0
10905 O 11.806797 24.562797 35.705933 O 0.0 **** 0.0
10906 H 11.812472 23.668058 36.045988 H 0.0 **** 0.0
10907 H 11.165058 24.545624 34.995929 H 0.0 **** 0.0
10908 M 11.725372 24.446061 35.658575 M 0.0 **** 0.0
10909 O 24.438851 36.037621 16.688237 O 0.0 **** 0.0
10910 H 24.208402 36.911076 17.004778 H 0.0 **** 0.0
10911 H 23.651579 35.513496 16.835627 H 0.0 **** 0.0
10912 M 24.30857 36.08234 16.747626 M 0.0 **** 0.0
10913 O 40.92651 24.364423 40.353204 O 0.0 **** 0.0
10914 H 41.658453 24.349714 40.969865 H 0.0 **** 0.0
10915 H 40.410716 25.128401 40.611127 H 0.0 **** 0.0
10916 M 40.95418 24.460339 40.465162 M 0.0 **** 0.0
10917 O 40.450236 24.015126 25.292434 O 0.0 **** 0.0
10918 H 39.659212 24.53948 25.167688 H 0.0 **** 0.0
10919 H 40.473809 23.83623 26.232471 H 0.0 **** 0.0
10920 M 40.351993 24.059349 25.396802 M 0.0 **** 0.0
10921 O 45.199353 28.14261 12.073886 O 0.0 **** 0.0
10922 H 45.763369 27.750254 11.407425 H 0.0 **** 0.0
10923 H 45.6426 27.95852 12.90206 H 0.0 **** 0.0
10924 M 45.328295 28.068818 12.094588 M 0.0 **** 0.0
10925 O 17.63373 30.512188 0.548414 O 0.0 **** 0.0
10926 H 18.057135 29.997453 1.235441 H 0.0 **** 0.0
10927 H 18.352882 30.798347 -0.014757 H 0.0 **** 0.0
10928 M 17.779992 30.482927 0.564269 M 0.0 **** 0.0
10929 O 12.41015 21.110663 31.837742 O 0.0 **** 0.0
10930 H 12.863171 20.394406 31.392796 H 0.0 **** 0.0
10931 H 13.098207 21.563905 32.324956 H 0.0 **** 0.0
10932 M 12.556222 21.076994 31.843153 M 0.0 **** 0.0
10933 O 38.615354 21.675534 44.665933 O 0.0 **** 0.0
10934 H 38.703908 20.723005 44.698703 H 0.0 **** 0.0
10935 H 39.514738 21.998399 44.610289 H 0.0 **** 0.0
10936 M 38.741823 21.594929 44.663005 M 0.0 **** 0.0
10937 O 20.483597 43.081749 13.849517 O 0.0 **** 0.0
10938 H 21.355493 43.46723 13.763313 H 0.0 **** 0.0
10939 H 20.404552 42.872755 14.78027 H 0.0 **** 0.0
10940 M 20.585092 43.104342 13.95763 M 0.0 **** 0.0
10941 O 41.763487 19.519651 32.928149 O 0.0 **** 0.0
10942 H 41.858981 18.571688 32.83609 H 0.0 **** 0.0
10943 H 40.819785 19.659296 33.006595 H 0.0 **** 0.0
10944 M 41.654906 19.416176 32.926406 M 0.0 **** 0.0
10945 O 14.106858 4.86688 7.880083 O 0.0 **** 0.0
10946 H 14.124859 5.526466 7.186649 H 0.0 **** 0.0
10947 H 13.330654 4.339987 7.690034 H 0.0 **** 0.0
10948 M 14.009798 4.883866 7.766986 M 0.0 **** 0.0
10949 O 15.884375 32.206723 35.427019 O 0.0 **** 0.0
10950 H 15.785984 32.624284 36.2827 H 0.0 **** 0.0
10951 H 16.764306 32.451267 35.140402 H 0.0 **** 0.0
10952 M 15.984422 32.29148 35.499867 M 0.0 **** 0.0
10953 O 23.752337 8.991139 29.537154 O 0.0 **** 0.0
10954 H 24.26696 8.811725 30.324048 H 0.0 **** 0.0
10955 H 23.840647 9.93471 29.402606 H 0.0 **** 0.0
10956 M 23.82952 9.088961 29.620663 M 0.0 **** 0.0
10957 O 21.006288 25.879647 11.630882 O 0.0 **** 0.0
10958 H 21.882033 25.566668 11.857473 H 0.0 **** 0.0
10959 H 21.15993 26.606855 11.027731 H 0.0 **** 0.0
10960 M 21.138062 25.932674 11.582678 M 0.0 **** 0.0
10961 O 10.721867 11.668456 22.940667 O 0.0 **** 0.0
10962 H 11.079377 10.780565 22.932624 H 0.0 **** 0.0
10963 H 9.776038 11.545608 23.02156 H 0.0 **** 0.0
10964 M 10.646555 11.539069 22.949992 M 0.0 **** 0.0
10965 O 34.147882 19.291561 41.711095 O 0.0 **** 0.0
10966 H 34.112186 18.892504 40.84178 H 0.0 **** 0.0
10967 H 34.675236 20.081333 41.591149 H 0.0 **** 0.0
10968 M 34.21082 19.341578 41.584457 M 0.0 **** 0.0
10969 O 6.939077 26.683388 18.530771 O 0.0 **** 0.0
10970 H 6.915337 27.283798 17.785671 H 0.0 **** 0.0
10971 H 7.657157 27.005385 19.075665 H 0.0 **** 0.0
10972 M 7.027962 26.801468 18.505142 M 0.0 **** 0.0
10973 O 7.351129 29.182275 39.511807 O 0.0 **** 0.0
10974 H 6.688624 28.734867 38.985365 H 0.0 **** 0.0
10975 H 8.108741 29.256654 38.931532 H 0.0 **** 0.0
10976 M 7.363304 29.134523 39.370134 M 0.0 **** 0.0
10977 O 14.513101 27.778033 34.660569 O 0.0 **** 0.0
10978 H 13.896314 27.64577 33.940632 H 0.0 **** 0.0
10979 H 14.342728 27.050826 35.25921 H 0.0 **** 0.0
10980 M 14.412335 27.66801 34.645041 M 0.0 **** 0.0
10981 O 1.527509 16.40542 19.557455 O 0.0 **** 0.0
10982 H 2.356751 16.155324 19.149977 H 0.0 **** 0.0
10983 H 1.647814 17.322726 19.803027 H 0.0 **** 0.0
10984 M 1.649063 16.490831 19.536729 M 0.0 **** 0.0
10985 O 43.875572 21.22365 32.786916 O 0.0 **** 0.0
10986 H 44.212169 22.098458 32.98093 H 0.0 **** 0.0
10987 H 44.02253 20.72611 33.591333 H 0.0 **** 0.0
10988 M 43.937473 21.271945 32.914728 M 0.0 **** 0.0
10989 O 1.472288 48.000448 36.772104 O 0.0 **** 0.0
10990 H 2.394984 47.790075 36.915643 H 0.0 **** 0.0
10991 H 1.067068 47.162569 36.548534 H 0.0 **** 0.0
10992 M 1.538531 47.866259 36.761859 M 0.0 **** 0.0
10993 O 21.667232 26.915657 42.847273 O 0.0 **** 0.0
10994 H 20.773705 27.077948 42.544784 H 0.0 **** 0.0
10995 H 21.927733 27.731447 43.274889 H 0.0 **** 0.0
10996 M 21.586197 27.040863 42.863291 M 0.0 **** 0.0
10997 O 23.41078 4.436344 11.472123 O 0.0 **** 0.0
10998 H 22.628436 4.612218 10.949405 H 0.0 **** 0.0
10999 H 23.267266 3.561006 11.831867 H 0.0 **** 0.0
11000 M 23.292258 4.346804 11.451261 M 0.0 **** 0.0
11001 O 18.235353 27.883485 42.585112 O 0.0 **** 0.0
11002 H 19.018311 28.397879 42.388636 H 0.0 **** 0.0
11003 H 18.038105 28.0864 43.499523 H 0.0 **** 0.0
11004 M 18.310331 27.975309 42.677017 M 0.0 **** 0.0
11005 O 33.618544 1.587063 16.28441 O 0.0 **** 0.0
11006 H 32.66285 1.539812 16.259015 H 0.0 **** 0.0
11007 H 33.807931 2.498539 16.50706 H 0.0 **** 0.0
11008 M 33.520447 1.697695 16.309661 M 0.0 **** 0.0
11009 O 1.530737 44.917336 3.378752 O 0.0 **** 0.0
11010 H 1.270136 44.88778 4.299318 H 0.0 **** 0.0
11011 H 2.138835 44.185037 3.277845 H 0.0 **** 0.0
11012 M 1.575221 44.819809 3.483678 M 0.0 **** 0.0
11013 O 3.426825 4.189875 8.203314 O 0.0 **** 0.0
11014 H 2.861478 4.962277 8.205819 H 0.0 **** 0.0
11015 H 2.82088 3.448932 8.211303 H 0.0 **** 0.0
11016 M 3.276885 4.193902 8.204658 M 0.0 **** 0.0
11017 O 28.865019 41.492338 43.748865 O 0.0 **** 0.0
11018 H 28.544673 41.81981 44.589322 H 0.0 **** 0.0
11019 H 29.673818 41.028128 43.964692 H 0.0 **** 0.0
11020 M 28.927547 41.474833 43.884083 M 0.0 **** 0.0
11021 O 28.536534 37.906071 33.553513 O 0.0 **** 0.0
11022 H 28.752052 37.871756 34.485502 H 0.0 **** 0.0
11023 H 28.326456 37.001287 33.322297 H 0.0 **** 0.0
11024 M 28.53723 37.785855 33.643221 M 0.0 **** 0.0
11025 O 1.323525 40.838328 28.691449 O 0.0 **** 0.0
11026 H 0.889789 39.996059 28.55476 H 0.0 **** 0.0
11027 H 0.614597 41.438705 28.922092 H 0.0 **** 0.0
11028 M 1.17725 40.807363 28.703477 M 0.0 **** 0.0
11029 O 37.420543 37.638583 20.470413 O 0.0 **** 0.0
11030 H 37.75765 36.750816 20.350178 H 0.0 **** 0.0
11031 H 36.475379 37.524915 20.570281 H 0.0 **** 0.0
11032 M 37.342704 37.510387 20.467806 M 0.0 **** 0.0
11033 O 42.938692 5.58899 47.859724 O 0.0 **** 0.0
11034 H 42.161238 6.122033 47.693416 H 0.0 **** 0.0
11035 H 42.598326 4.705465 48.000307 H 0.0 **** 0.0
11036 M 42.795597 5.544124 47.856431 M 0.0 **** 0.0
11037 O 17.508199 37.28146 28.028528 O 0.0 **** 0.0
11038 H 18.202858 37.74277 28.498497 H 0.0 **** 0.0
11039 H 17.056993 37.96609 27.534643 H 0.0 **** 0.0
11040 M 17.539364 37.428155 28.025467 M 0.0 **** 0.0
11041 O 36.392943 36.662808 10.274286 O 0.0 **** 0.0
11042 H 36.932707 35.872775 10.247224 H 0.0 **** 0.0
11043 H 35.530397 36.354746 10.552389 H 0.0 **** 0.0
11044 M 36.351623 36.522238 10.306423 M 0.0 **** 0.0
11045 O 23.027909 25.933207 10.003939 O 0.0 **** 0.0
11046 H 23.389569 26.815829 10.084001 H 0.0 **** 0.0
11047 H 22.471455 25.971513 9.226044 H 0.0 **** 0.0
11048 M 23.002973 26.051098 9.914608 M 0.0 **** 0.0
11049 O 0.36755 16.97088 12.304495 O 0.0 **** 0.0
11050 H 0.812144 16.135841 12.450357 H 0.0 **** 0.0
11051 H 1.027522 17.633174 12.509512 H 0.0 **** 0.0
11052 M 0.508948 16.948766 12.349412 M 0.0 **** 0.0
11053 O 3.751594 33.849794 47.767924 O 0.0 **** 0.0
11054 H 3.099618 33.201753 47.501094 H 0.0 **** 0.0
11055 H 3.572323 34.611576 47.216762 H 0.0 **** 0.0
11056 M 3.645184 33.864354 47.663211 M 0.0 **** 0.0
11057 O 24.976701 28.714041 23.954006 O 0.0 **** 0.0
11058 H 25.06864 29.620578 24.247209 H 0.0 **** 0.0
11059 H 24.332465 28.332999 24.55066 H 0.0 **** 0.0
11060 M 24.906 28.781311 24.067919 M 0.0 **** 0.0
11061 O 36.399185 48.00199 20.771937 O 0.0 **** 0.0
11062 H 35.453557 47.912004 20.889921 H 0.0 **** 0.0
11063 H 36.771726 47.746311 21.615779 H 0.0 **** 0.0
11064 M 36.325823 47.957741 20.895063 M 0.0 **** 0.0
11065 O 33.478725 41.185565 16.628412 O 0.0 **** 0.0
11066 H 34.368413 40.850557 16.516817 H 0.0 **** 0.0
11067 H 33.311452 41.114002 17.568161 H 0.0 **** 0.0
11068 M 33.571203 41.133519 16.734426 M 0.0 **** 0.0
11069 O 39.458506 14.768059 27.671465 O 0.0 **** 0.0
11070 H 39.931767 14.083452 28.144293 H 0.0 **** 0.0
11071 H 38.639408 14.871849 28.155753 H 0.0 **** 0.0
11072 M 39.414234 14.693707 27.793988 M 0.0 **** 0.0
11073 O 2.052289 17.445833 34.131235 O 0.0 **** 0.0
11074 H 2.549427 18.258959 34.042302 H 0.0 **** 0.0
11075 H 1.135798 17.720345 34.100968 H 0.0 **** 0.0
11076 M 1.998607 17.585064 34.115976 M 0.0 **** 0.0
11077 O 39.280659 25.783686 26.945048 O 0.0 **** 0.0
11078 H 39.932415 26.218784 27.494714 H 0.0 **** 0.0
11079 H 38.566893 26.417264 26.87194 H 0.0 **** 0.0
11080 M 39.272721 25.92049 27.006053 M 0.0 **** 0.0
11081 O 19.62625 21.25831 11.787399 O 0.0 **** 0.0
11082 H 20.375353 21.839409 11.919297 H 0.0 **** 0.0
11083 H 20.014198 20.394188 11.649487 H 0.0 **** 0.0
11084 M 19.771807 21.222079 11.786629 M 0.0 **** 0.0
11085 O 7.353272 41.81216 45.917054 O 0.0 **** 0.0
11086 H 7.760539 40.959059 45.766781 H 0.0 **** 0.0
11087 H 8.058021 42.443435 45.771968 H 0.0 **** 0.0
11088 M 7.495624 41.783763 45.879244 M 0.0 **** 0.0
11089 O 21.466475 11.419435 24.83576 O 0.0 **** 0.0
11090 H 21.167074 11.385754 25.744305 H 0.0 **** 0.0
11091 H 22.415755 11.310035 24.891688 H 0.0 **** 0.0
11092 M 21.549667 11.401119 24.959225 M 0.0 **** 0.0
11093 O 20.162694 34.826491 32.577252 O 0.0 **** 0.0
11094 H 19.843696 35.401121 31.881357 H 0.0 **** 0.0
11095 H 21.031099 34.552049 32.282663 H 0.0 **** 0.0
11096 M 20.233025 34.864919 32.450458 M 0.0 **** 0.0
11097 O 26.886061 37.757385 39.660939 O 0.0 **** 0.0
11098 H 26.364624 38.055206 40.406348 H 0.0 **** 0.0
11099 H 27.793363 37.900668 39.930201 H 0.0 **** 0.0
11100 M 26.935456 37.813852 39.790829 M 0.0 **** 0.0
11101 O 9.302851 36.898345 24.79783 O 0.0 **** 0.0
11102 H 9.944032 37.306304 25.379797 H 0.0 **** 0.0
11103 H 9.72181 36.087223 24.510112 H 0.0 **** 0.0
11104 M 9.438562 36.846735 24.835498 M 0.0 **** 0.0
11105 O 10.345649 46.695403 4.775647 O 0.0 **** 0.0
11106 H 10.906518 47.301861 5.25924 H 0.0 **** 0.0
11107 H 9.470294 46.839539 5.1351 H 0.0 **** 0.0
11108 M 10.305391 46.791488 4.883567 M 0.0 **** 0.0
11109 O 20.35165 14.417002 47.33649 O 0.0 **** 0.0
11110 H 19.983538 13.614825 47.70694 H 0.0 **** 0.0
11111 H 19.710009 15.095245 47.54747 H 0.0 **** 0.0
11112 M 20.222389 14.401137 47.410921 M 0.0 **** 0.0
11113 O 14.201554 3.00488 23.211002 O 0.0 **** 0.0
11114 H 14.415234 2.279294 22.624407 H 0.0 **** 0.0
11115 H 13.330971 3.289705 22.933173 H 0.0 **** 0.0
11116 M 14.117462 2.948457 23.100345 M 0.0 **** 0.0
11117 O 41.351882 14.021979 31.388516 O 0.0 **** 0.0
11118 H 41.532357 14.885291 31.016562 H 0.0 **** 0.0
11119 H 40.524473 14.130838 31.857314 H 0.0 **** 0.0
11120 M 41.269066 14.146429 31.400913 M 0.0 **** 0.0
11121 O 41.930278 19.631197 20.160143 O 0.0 **** 0.0
11122 H 41.32956 18.885968 20.159978 H 0.0 **** 0.0
11123 H 41.359465 20.399573 20.159916 H 0.0 **** 0.0
11124 M 41.780307 19.63416 20.160093 M 0.0 **** 0.0
11125 O 4.081229 35.1768 10.150204 O 0.0 **** 0.0
11126 H 3.943986 34.403818 9.602579 H 0.0 **** 0.0
11127 H 4.767873 35.67005 9.701369 H 0.0 **** 0.0
11128 M 4.151559 35.14099 10.022644 M 0.0 **** 0.0
11129 O 30.927383 24.459114 35.772051 O 0.0 **** 0.0
11130 H 30.990578 25.29395 35.308064 H 0.0 **** 0.0
11131 H 30.678769 24.698916 36.664752 H 0.0 **** 0.0
11132 M 30.903647 24.596681 35.826932 M 0.0 **** 0.0
11133 O 41.445496 4.578138 18.647185 O 0.0 **** 0.0
11134 H 41.417083 4.361265 17.715312 H 0.0 **** 0.0
11135 H 40.90954 3.905081 19.066678 H 0.0 **** 0.0
11136 M 41.373249 4.464216 18.581594 M 0.0 **** 0.0
11137 O 11.893601 45.525822 9.441475 O 0.0 **** 0.0
11138 H 11.302264 45.775251 10.15164 H 0.0 **** 0.0
11139 H 12.741809 45.402536 9.867588 H 0.0 **** 0.0
11140 M 11.926484 45.54197 9.586933 M 0.0 **** 0.0
11141 O 0.420782 39.122509 37.489919 O 0.0 **** 0.0
11142 H 0.005659 38.442404 36.959487 H 0.0 **** 0.0
11143 H 1.319622 38.816726 37.611619 H 0.0 **** 0.0
11144 M 0.482704 38.996303 37.437596 M 0.0 **** 0.0
11145 O 33.180146 30.109955 38.477685 O 0.0 **** 0.0
11146 H 34.012522 30.555346 38.635821 H 0.0 **** 0.0
11147 H 32.514704 30.774499 38.656002 H 0.0 **** 0.0
11148 M 33.201516 30.252041 38.520755 M 0.0 **** 0.0
11149 O 0.994003 14.059939 4.914655 O 0.0 **** 0.0
11150 H 0.133645 14.181058 5.316331 H 0.0 **** 0.0
11151 H 1.546403 13.732756 5.624609 H 0.0 **** 0.0
11152 M 0.95458 14.03356 5.056957 M 0.0 **** 0.0
11153 O 42.273272 38.76227 26.707723 O 0.0 **** 0.0
11154 H 42.215464 37.906154 26.283515 H 0.0 **** 0.0
11155 H 42.902845 39.25083 26.177462 H 0.0 **** 0.0
11156 M 42.346465 38.715219 26.585539 M 0.0 **** 0.0
11157 O 38.662609 44.050559 8.767717 O 0.0 **** 0.0
11158 H 39.451753 44.591991 8.749487 H 0.0 **** 0.0
11159 H 38.969026 43.189225 9.05134 H 0.0 **** 0.0
11160 M 38.802855 44.009607 8.801691 M 0.0 **** 0.0
11161 O 7.788777 5.784751 47.487334 O 0.0 **** 0.0
11162 H 7.882322 4.927522 47.071838 H 0.0 **** 0.0
11163 H 6.983047 5.716529 47.999559 H 0.0 **** 0.0
11164 M 7.697608 5.666281 47.499717 M 0.0 **** 0.0
11165 O 33.246417 1.455173 19.903154 O 0.0 **** 0.0
11166 H 33.746636 2.271251 19.898028 H 0.0 **** 0.0
11167 H 32.331044 1.734677 19.889084 H 0.0 **** 0.0
11168 M 33.193272 1.595421 19.900697 M 0.0 **** 0.0
11169 O 32.562466 8.798155 44.585688 O 0.0 **** 0.0
11170 H 32.728737 9.7256 44.754299 H 0.0 **** 0.0
11171 H 32.776331 8.362163 45.410553 H 0.0 **** 0.0
11172 M 32.611128 8.861067 44.712866 M 0.0 **** 0.0
11173 O 47.112708 46.296553 48.014627 O 0.0 **** 0.0
11174 H 46.231399 46.319803 47.641823 H 0.0 **** 0.0
11175 H 47.450769 45.432929 47.77778 H 0.0 **** 0.0
11176 M 47.043165 46.188975 47.936584 M 0.0 **** 0.0
11177 O 2.768294 36.167115 15.927068 O 0.0 **** 0.0
11178 H 2.752494 36.679669 16.735317 H 0.0 **** 0.0
11179 H 1.932983 36.362663 15.502515 H 0.0 **** 0.0
11180 M 2.659341 36.257761 15.976186 M 0.0 **** 0.0
11181 O 26.705212 4.605222 34.441683 O 0.0 **** 0.0
11182 H 26.838358 3.695107 34.706618 H 0.0 **** 0.0
11183 H 26.183032 4.986673 35.147411 H 0.0 **** 0.0
11184 M 26.65541 4.537546 34.56594 M 0.0 **** 0.0
11185 O 16.450028 38.280527 21.205214 O 0.0 **** 0.0
11186 H 16.985609 39.06984 21.125415 H 0.0 **** 0.0
11187 H 17.083743 37.566701 21.276532 H 0.0 **** 0.0
11188 M 16.599713 38.29019 21.204129 M 0.0 **** 0.0
11189 O 3.011248 25.470539 43.720758 O 0.0 **** 0.0
11190 H 3.962655 25.489272 43.824206 H 0.0 **** 0.0
11191 H 2.670937 25.629176 44.601241 H 0.0 **** 0.0
11192 M 3.089476 25.493244 43.846713 M 0.0 **** 0.0
11193 O 7.06498 44.726621 39.083205 O 0.0 **** 0.0
11194 H 7.00985 45.570354 39.531874 H 0.0 **** 0.0
11195 H 6.162543 44.408449 39.05865 H 0.0 **** 0.0
11196 M 6.942399 44.793899 39.137497 M 0.0 **** 0.0
11197 O 30.640639 16.825095 42.89209 O 0.0 **** 0.0
11198 H 31.050096 16.406892 42.134673 H 0.0 **** 0.0
11199 H 29.748195 16.479217 42.903904 H 0.0 **** 0.0
11200 M 30.578811 16.727283 42.796643 M 0.0 **** 0.0
11201 O 18.496214 0.39589 20.014763 O 0.0 **** 0.0
11202 H 18.576221 1.329734 19.82044 H 0.0 **** 0.0
11203 H 18.213573 0.002335 19.189259 H 0.0 **** 0.0
11204 M 18.470275 0.465054 19.884212 M 0.0 **** 0.0
11205 O 16.222253 20.165992 14.204977 O 0.0 **** 0.0
11206 H 16.981742 20.609111 13.826757 H 0.0 **** 0.0
11207 H 16.356243 19.24113 13.997843 H 0.0 **** 0.0
11208 M 16.33663 20.104323 14.130044 M 0.0 **** 0.0
11209 O 13.434231 39.980047 41.569924 O 0.0 **** 0.0
11210 H 12.535239 39.655007 41.618805 H 0.0 **** 0.0
11211 H 13.857315 39.418894 40.920051 H 0.0 **** 0.0
11212 M 13.373309 39.866603 41.49299 M 0.0 **** 0.0
11213 O 35.708386 20.501535 36.054178 O 0.0 **** 0.0
11214 H 36.07717 19.618244 36.049262 H 0.0 **** 0.0
11215 H 34.809298 20.384518 36.36106 H 0.0 **** 0.0
11216 M 35.6405 20.373483 36.092834 M 0.0 **** 0.0
11217 O 2.831402 23.615219 31.044998 O 0.0 **** 0.0
11218 H 3.562181 23.868423 30.481014 H 0.0 **** 0.0
11219 H 3.188987 23.651939 31.932136 H 0.0 **** 0.0
11220 M 2.970726 23.652333 31.086366 M 0.0 **** 0.0
11221 O 21.729953 15.191625 12.594614 O 0.0 **** 0.0
11222 H 21.436377 14.379258 12.18218 H 0.0 **** 0.0
11223 H 20.943331 15.549908 13.005816 H 0.0 **** 0.0
11224 M 21.591675 15.133497 12.594456 M 0.0 **** 0.0
11225 O 23.686895 11.878982 8.715211 O 0.0 **** 0.0
11226 H 23.275122 12.012942 7.861556 H 0.0 **** 0.0
11227 H 22.961087 11.662212 9.300397 H 0.0 **** 0.0
11228 M 23.54127 11.868381 8.680844 M 0.0 **** 0.0
11229 O 47.999291 29.892875 16.987481 O 0.0 **** 0.0
11230 H 47.77481 30.248761 17.847238 H 0.0 **** 0.0
11231 H 47.957855 30.645751 16.397829 H 0.0 **** 0.0
11232 M 47.965251 30.03481 17.022058 M 0.0 **** 0.0
11233 O 31.938534 18.710957 39.333291 O 0.0 **** 0.0
11234 H 31.730983 17.780644 39.245713 H 0.0 **** 0.0
11235 H 32.848454 18.782038 39.044809 H 0.0 **** 0.0
11236 M 32.028446 18.600964 39.28515 M 0.0 **** 0.0
11237 O 24.05201 7.964651 6.600507 O 0.0 **** 0.0
11238 H 24.536825 8.303977 5.84815 H 0.0 **** 0.0
11239 H 24.718861 7.552215 7.149538 H 0.0 **** 0.0
11240 M 24.199438 7.955292 6.574478 M 0.0 **** 0.0
11241 O 27.639149 9.69472 40.06891 O 0.0 **** 0.0
11242 H 28.506022 9.804261 40.459755 H 0.0 **** 0.0
11243 H 27.571484 10.405965 39.431901 H 0.0 **** 0.0
11244 M 27.741457 9.799791 40.037398 M 0.0 **** 0.0
11245 O 41.88155 23.512272 18.492628 O 0.0 **** 0.0
11246 H 41.852091 22.561096 18.595704 H 0.0 **** 0.0
11247 H 41.091394 23.724409 17.995758 H 0.0 **** 0.0
11248 M 41.776629 23.417666 18.442217 M 0.0 **** 0.0
11249 O 7.765747 27.239464 29.594937 O 0.0 **** 0.0
11250 H 8.622769 27.595872 29.361022 H 0.0 **** 0.0
11251 H 7.615867 26.538785 28.960262 H 0.0 **** 0.0
11252 M 7.85627 27.195393 29.483747 M 0.0 **** 0.0
11253 O 22.591145 8.676474 32.18366 O 0.0 **** 0.0
11254 H 23.27544 9.344878 32.218369 H 0.0 **** 0.0
11255 H 23.067495 7.847098 32.145527 H 0.0 **** 0.0
11256 M 22.739722 8.655868 32.183222 M 0.0 **** 0.0
11257 O 0.45291 10.445801 25.144547 O 0.0 **** 0.0
11258 H 1.273675 10.565834 24.66688 H 0.0 **** 0.0
11259 H 0.19019 9.546577 24.948069 H 0.0 **** 0.0
11260 M 0.524347 10.346055 25.058248 M 0.0 **** 0.0
11261 O 39.872214 2.270967 41.460369 O 0.0 **** 0.0
11262 H 39.452782 2.457137 40.620341 H 0.0 **** 0.0
11263 H 40.545267 1.622388 41.254033 H 0.0 **** 0.0
11264 M 39.90468 2.211773 41.326421 M 0.0 **** 0.0
11265 O 23.108281 11.956364 15.601258 O 0.0 **** 0.0
11266 H 23.912309 12.243836 15.168676 H 0.0 **** 0.0
11267 H 22.403905 12.309747 15.057932 H 0.0 **** 0.0
11268 M 23.121038 12.038402 15.476329 M 0.0 **** 0.0
11269 O 37.231056 14.433703 7.488211 O 0.0 **** 0.0
11270 H 36.482332 14.199192 6.939899 H 0.0 **** 0.0
11271 H 37.18104 15.386253 7.568058 H 0.0 **** 0.0
11272 M 37.128807 14.525621 7.428241 M 0.0 **** 0.0
11273 O 14.26155 30.13606 46.849833 O 0.0 **** 0.0
11274 H 13.588746 30.285443 46.185568 H 0.0 **** 0.0
11275 H 13.832848 29.587118 47.50642 H 0.0 **** 0.0
11276 M 14.120543 30.084911 46.84885 M 0.0 **** 0.0
11277 O 16.560586 10.162303 41.361708 O 0.0 **** 0.0
11278 H 16.070908 9.433523 40.980495 H 0.0 **** 0.0
11279 H 17.20973 10.389573 40.695984 H 0.0 **** 0.0
11280 M 16.580999 10.098104 41.227687 M 0.0 **** 0.0
11281 O 30.261005 36.21358 25.867135 O 0.0 **** 0.0
11282 H 31.209207 36.153632 25.75074 H 0.0 **** 0.0
11283 H 30.115647 35.970905 26.781579 H 0.0 **** 0.0
11284 M 30.363779 36.17484 25.969295 M 0.0 **** 0.0
11285 O 37.981569 14.82854 31.282526 O 0.0 **** 0.0
11286 H 37.656265 15.149077 30.441299 H 0.0 **** 0.0
11287 H 38.071517 13.883399 31.160686 H 0.0 **** 0.0
11288 M 37.95144 14.748583 31.159241 M 0.0 **** 0.0
11289 O 33.365763 7.963824 30.177731 O 0.0 **** 0.0
11290 H 33.589256 7.201777 30.712113 H 0.0 **** 0.0
11291 H 32.658751 7.659078 29.608967 H 0.0 **** 0.0
11292 M 33.303867 7.827261 30.17333 M 0.0 **** 0.0
11293 O 18.013292 35.471234 39.739412 O 0.0 **** 0.0
11294 H 17.590335 36.225049 39.328198 H 0.0 **** 0.0
11295 H 18.151368 35.739508 40.647814 H 0.0 **** 0.0
11296 M 17.976824 35.602074 39.803059 M 0.0 **** 0.0
11297 O 11.874723 13.712394 17.874733 O 0.0 **** 0.0
11298 H 11.83925 13.158962 18.654915 H 0.0 **** 0.0
11299 H 11.519369 14.55382 18.161011 H 0.0 **** 0.0
11300 M 11.824692 13.749261 18.011254 M 0.0 **** 0.0
11301 O 36.482797 18.164561 13.772017 O 0.0 **** 0.0
11302 H 36.780159 19.02802 14.058799 H 0.0 **** 0.0
11303 H 36.260982 17.705787 14.582297 H 0.0 **** 0.0
11304 M 36.492468 18.216366 13.912455 M 0.0 **** 0.0
11305 O 27.600147 7.900756 46.029853 O 0.0 **** 0.0
11306 H 27.029793 7.151091 45.859772 H 0.0 **** 0.0
11307 H 27.00445 8.648016 46.084423 H 0.0 **** 0.0
11308 M 27.450878 7.900448 46.015066 M 0.0 **** 0.0
11309 O 32.690421 27.197606 26.441666 O 0.0 **** 0.0
11310 H 33.579659 27.529585 26.318075 H 0.0 **** 0.0
11311 H 32.184703 27.962496 26.716296 H 0.0 **** 0.0
11312 M 32.739516 27.338019 26.461001 M 0.0 **** 0.0
11313 O 14.239454 24.82615 22.288693 O 0.0 **** 0.0
11314 H 14.949649 24.916409 21.653314 H 0.0 **** 0.0
11315 H 13.892554 23.946913 22.137589 H 0.0 **** 0.0
11316 M 14.285961 24.725151 22.188013 M 0.0 **** 0.0
11317 O 46.796584 31.380359 34.424427 O 0.0 **** 0.0
11318 H 47.702016 31.070845 34.399461 H 0.0 **** 0.0
11319 H 46.87014 32.332656 34.487258 H 0.0 **** 0.0
11320 M 46.921907 31.462643 34.429275 M 0.0 **** 0.0
11321 O 7.803959 45.301293 35.794718 O 0.0 **** 0.0
11322 H 7.699047 46.207702 36.083932 H 0.0 **** 0.0
11323 H 7.450369 45.290727 34.905285 H 0.0 **** 0.0
11324 M 7.745265 45.415972 35.717882 M 0.0 **** 0.0
11325 O 12.501941 34.416986 29.510823 O 0.0 **** 0.0
11326 H 12.181524 35.317461 29.458819 H 0.0 **** 0.0
11327 H 13.452888 34.504063 29.57675 H 0.0 **** 0.0
11328 M 12.582657 34.543405 29.512605 M 0.0 **** 0.0
11329 O 26.846507 36.875328 14.700191 O 0.0 **** 0.0
11330 H 25.949288 37.196411 14.790363 H 0.0 **** 0.0
11331 H 26.75548 35.924994 14.630842 H 0.0 **** 0.0
11332 M 26.719999 36.794776 14.702857 M 0.0 **** 0.0
11333 O 24.694213 46.774527 21.838928 O 0.0 **** 0.0
11334 H 25.248316 47.544536 21.966538 H 0.0 **** 0.0
11335 H 23.806462 47.085712 22.015821 H 0.0 **** 0.0
11336 M 24.651501 46.912933 21.877908 M 0.0 **** 0.0
11337 O 33.061863 42.683991 4.213879 O 0.0 **** 0.0
11338 H 33.922175 43.021429 4.463334 H 0.0 **** 0.0
11339 H 32.563374 43.461047 3.96105 H 0.0 **** 0.0
11340 M 33.108181 42.82666 4.213447 M 0.0 **** 0.0
11341 O 22.833185 4.977036 16.524218 O 0.0 **** 0.0
11342 H 22.424459 5.602843 17.122162 H 0.0 **** 0.0
11343 H 22.190586 4.272894 16.437742 H 0.0 **** 0.0
11344 M 22.698602 4.967008 16.589693 M 0.0 **** 0.0
11345 O 13.256766 8.507343 8.116559 O 0.0 **** 0.0
11346 H 13.847187 7.757036 8.048213 H 0.0 **** 0.0
11347 H 13.838007 9.265823 8.172195 H 0.0 **** 0.0
11348 M 13.406753 8.508389 8.114932 M 0.0 **** 0.0
11349 O 39.595823 32.438866 21.075168 O 0.0 **** 0.0
11350 H 39.151545 31.729653 20.610558 H 0.0 **** 0.0
11351 H 39.237826 32.405879 21.962286 H 0.0 **** 0.0
11352 M 39.493122 32.343855 21.129254 M 0.0 **** 0.0
11353 O 11.184154 16.239629 42.583645 O 0.0 **** 0.0
11354 H 11.090514 15.364021 42.208451 H 0.0 **** 0.0
11355 H 11.705048 16.106903 43.375656 H 0.0 **** 0.0
11356 M 11.238848 16.11055 42.637003 M 0.0 **** 0.0
11357 O 34.276315 3.494486 8.626422 O 0.0 **** 0.0
11358 H 35.168827 3.29836 8.341492 H 0.0 **** 0.0
11359 H 33.974088 2.686846 9.041879 H 0.0 **** 0.0
11360 M 34.351879 3.365991 8.643131 M 0.0 **** 0.0
11361 O 38.776474 26.144632 5.08609 O 0.0 **** 0.0
11362 H 38.610076 26.060945 6.024992 H 0.0 **** 0.0
11363 H 39.336464 25.397837 4.874105 H 0.0 **** 0.0
11364 M 38.826859 26.03832 5.179145 M 0.0 **** 0.0
11365 O 9.900656 43.260677 35.219971 O 0.0 **** 0.0
11366 H 9.28972 43.724503 34.647388 H 0.0 **** 0.0
11367 H 10.381439 42.675755 34.634358 H 0.0 **** 0.0
11368 M 9.883995 43.245175 35.071707 M 0.0 **** 0.0
11369 O 15.029309 6.366006 25.828849 O 0.0 **** 0.0
11370 H 15.171046 5.54986 25.349219 H 0.0 **** 0.0
11371 H 14.077563 6.462177 25.862898 H 0.0 **** 0.0
11372 M 14.925617 6.27384 25.771809 M 0.0 **** 0.0
11373 O 6.685428 31.610852 12.168544 O 0.0 **** 0.0
11374 H 6.172338 31.564502 11.36181 H 0.0 **** 0.0
11375 H 7.043954 32.498351 12.174278 H 0.0 **** 0.0
11376 M 6.665642 31.718529 12.066006 M 0.0 **** 0.0
11377 O 29.479449 10.631919 47.80817 O 0.0 **** 0.0
11378 H 30.291398 11.138802 47.802039 H 0.0 **** 0.0
11379 H 29.766244 9.719025 47.783637 H 0.0 **** 0.0
11380 M 29.620102 10.579945 47.804244 M 0.0 **** 0.0
11381 O 15.413063 13.360094 47.41039 O 0.0 **** 0.0
11382 H 15.612696 14.085096 48.00263 H 0.0 **** 0.0
11383 H 14.562293 13.585104 47.033839 H 0.0 **** 0.0
11384 M 15.329709 13.481708 47.438 M 0.0 **** 0.0
11385 O 17.863045 8.621688 39.185074 O 0.0 **** 0.0
11386 H 18.330775 8.63012 38.349977 H 0.0 **** 0.0
11387 H 17.014184 9.018055 38.988716 H 0.0 **** 0.0
11388 M 17.814256 8.673508 39.053035 M 0.0 **** 0.0
11389 O 38.099235 26.353868 47.441849 O 0.0 **** 0.0
11390 H 38.110165 27.131907 47.999312 H 0.0 **** 0.0
11391 H 37.560857 26.604144 46.691023 H 0.0 **** 0.0
11392 M 38.031715 26.485505 47.417096 M 0.0 **** 0.0
11393 O 15.640948 37.143664 2.626368 O 0.0 **** 0.0
11394 H 16.597279 37.184144 2.630766 H 0.0 **** 0.0
11395 H 15.36718 37.977924 2.2452 H 0.0 **** 0.0
11396 M 15.728324 37.255641 2.578137 M 0.0 **** 0.0
11397 O 45.752793 3.175506 13.122229 O 0.0 **** 0.0
11398 H 46.641982 3.071084 13.460856 H 0.0 **** 0.0
11399 H 45.872767 3.430806 12.207539 H 0.0 **** 0.0
11400 M 45.881979 3.194821 13.048486 M 0.0 **** 0.0
11401 O 16.700704 18.574155 41.151113 O 0.0 **** 0.0
11402 H 17.513347 18.102361 40.968765 H 0.0 **** 0.0
11403 H 16.327941 18.752684 40.287745 H 0.0 **** 0.0
11404 M 16.757014 18.536614 41.017249 M 0.0 **** 0.0
11405 O 35.906877 17.905404 46.991635 O 0.0 **** 0.0
11406 H 36.432187 17.106815 46.941303 H 0.0 **** 0.0
11407 H 35.964053 18.172856 47.908929 H 0.0 **** 0.0
11408 M 35.981443 17.837411 47.102617 M 0.0 **** 0.0
11409 O 41.118314 24.522988 29.073662 O 0.0 **** 0.0
11410 H 40.895652 25.42521 29.30311 H 0.0 **** 0.0
11411 H 40.495381 24.289682 28.385367 H 0.0 **** 0.0
11412 M 41.010067 24.608618 29.014924 M 0.0 **** 0.0
11413 O 2.965303 12.334316 37.059474 O 0.0 **** 0.0
11414 H 2.974365 11.377208 37.068946 H 0.0 **** 0.0
11415 H 3.828128 12.585758 37.388925 H 0.0 **** 0.0
11416 M 3.076916 12.243982 37.102861 M 0.0 **** 0.0
11417 O 5.648572 3.260301 38.025035 O 0.0 **** 0.0
11418 H 5.110447 3.241274 38.816418 H 0.0 **** 0.0
11419 H 6.254719 2.526854 38.129293 H 0.0 **** 0.0
11420 M 5.65728 3.163975 38.139688 M 0.0 **** 0.0
11421 O 39.367762 11.866044 2.913977 O 0.0 **** 0.0
11422 H 39.473493 10.918656 3.000606 H 0.0 **** 0.0
11423 H 38.815606 12.114682 3.655281 H 0.0 **** 0.0
11424 M 39.310614 11.776595 3.019963 M 0.0 **** 0.0
11425 O 11.58611 4.085989 1.66826 O 0.0 **** 0.0
11426 H 11.995511 4.155698 2.530675 H 0.0 **** 0.0
11427 H 11.393961 4.990248 1.420019 H 0.0 **** 0.0
11428 M 11.613921 4.210669 1.746882 M 0.0 **** 0.0
11429 O 37.626493 1.257352 46.510164 O 0.0 **** 0.0
11430 H 36.814213 0.93575 46.901319 H 0.0 **** 0.0
11431 H 38.207341 0.496563 46.503571 H 0.0 **** 0.0
11432 M 37.596867 1.118793 46.559393 M 0.0 **** 0.0
11433 O 22.576719 5.968568 3.327851 O 0.0 **** 0.0
11434 H 21.657659 5.701973 3.34983 H 0.0 **** 0.0
11435 H 23.066092 5.149478 3.404238 H 0.0 **** 0.0
11436 M 22.521714 5.829587 3.340443 M 0.0 **** 0.0
11437 O 44.32413 37.222223 22.593291 O 0.0 **** 0.0
11438 H 44.283593 36.277921 22.744548 H 0.0 **** 0.0
11439 H 43.532545 37.565818 23.007494 H 0.0 **** 0.0
11440 M 44.217608 37.145325 22.665677 M 0.0 **** 0.0
11441 O 5.509538 31.780832 43.324577 O 0.0 **** 0.0
11442 H 5.755484 30.867346 43.470459 H 0.0 **** 0.0
11443 H 5.736121 31.947189 42.409583 H 0.0 **** 0.0
11444 M 5.570028 31.68519 43.226121 M 0.0 **** 0.0
11445 O 20.539261 33.27361 17.204174 O 0.0 **** 0.0
11446 H 20.344709 32.37367 16.942475 H 0.0 **** 0.0
11447 H 20.602587 33.755052 16.379291 H 0.0 **** 0.0
11448 M 20.522463 33.220037 17.065078 M 0.0 **** 0.0
11449 O 10.544593 28.331493 3.929507 O 0.0 **** 0.0
11450 H 10.569974 27.954953 3.049847 H 0.0 **** 0.0
11451 H 11.426182 28.677737 4.067878 H 0.0 **** 0.0
11452 M 10.660697 28.327615 3.834613 M 0.0 **** 0.0
11453 O 20.961623 16.241575 45.674022 O 0.0 **** 0.0
11454 H 20.994789 16.174488 44.719753 H 0.0 **** 0.0
11455 H 20.505177 17.066217 45.84091 H 0.0 **** 0.0
11456 M 20.907438 16.338551 45.573227 M 0.0 **** 0.0
11457 O 15.802183 28.819001 15.359897 O 0.0 **** 0.0
11458 H 16.450484 28.159002 15.60553 H 0.0 **** 0.0
11459 H 16.31967 29.594017 15.141297 H 0.0 **** 0.0
11460 M 15.951419 28.833725 15.363357 M 0.0 **** 0.0
11461 O 5.052576 16.060578 9.917645 O 0.0 **** 0.0
11462 H 5.702763 15.361468 9.848876 H 0.0 **** 0.0
11463 H 4.209533 15.60879 9.880303 H 0.0 **** 0.0
11464 M 5.027888 15.913249 9.904061 M 0.0 **** 0.0
11465 O 17.781719 36.840922 45.147589 O 0.0 **** 0.0
11466 H 18.059984 36.103254 44.60478 H 0.0 **** 0.0
11467 H 16.947822 37.117396 44.76758 H 0.0 **** 0.0
11468 M 17.710591 36.781883 45.029457 M 0.0 **** 0.0
11469 O 31.732591 20.492602 42.572306 O 0.0 **** 0.0
11470 H 31.040682 20.635545 41.926506 H 0.0 **** 0.0
11471 H 32.076287 19.623073 42.367318 H 0.0 **** 0.0
11472 M 31.688016 20.39959 42.463395 M 0.0 **** 0.0
11473 O 40.149018 29.40147 17.766862 O 0.0 **** 0.0
11474 H 39.949477 28.560575 18.178332 H 0.0 **** 0.0
11475 H 40.570412 29.912711 18.457723 H 0.0 **** 0.0
11476 M 40.177418 29.35927 17.907974 M 0.0 **** 0.0
11477 O 10.339475 44.636683 3.998107 O 0.0 **** 0.0
11478 H 10.4123 43.682268 3.994063 H 0.0 **** 0.0
11479 H 10.98876 44.929625 3.358699 H 0.0 **** 0.0
11480 M 10.431914 44.552006 3.915737 M 0.0 **** 0.0
11481 O 46.273752 35.330343 6.639567 O 0.0 **** 0.0
11482 H 46.656206 35.894452 7.311683 H 0.0 **** 0.0
11483 H 46.763905 34.510903 6.706631 H 0.0 **** 0.0
11484 M 46.385457 35.297658 6.734191 M 0.0 **** 0.0
11485 O 10.983507 40.688849 42.847491 O 0.0 **** 0.0
11486 H 11.241592 41.610449 42.8641 H 0.0 **** 0.0
11487 H 11.557975 40.267198 43.486572 H 0.0 **** 0.0
11488 M 11.090084 40.752849 42.931427 M 0.0 **** 0.0
11489 O 32.417685 45.351726 39.827264 O 0.0 **** 0.0
11490 H 32.619138 46.28722 39.849525 H 0.0 **** 0.0
11491 H 33.27303 44.92235 39.811455 H 0.0 **** 0.0
11492 M 32.552969 45.416515 39.82809 M 0.0 **** 0.0
11493 O 25.187838 18.587506 13.294715 O 0.0 **** 0.0
11494 H 25.481355 18.930418 12.450625 H 0.0 **** 0.0
11495 H 25.587647 19.168474 13.941908 H 0.0 **** 0.0
11496 M 25.276593 18.705775 13.26951 M 0.0 **** 0.0
11497 O 38.155042 12.734869 45.114315 O 0.0 **** 0.0
11498 H 37.207553 12.750576 45.249396 H 0.0 **** 0.0
11499 H 38.399563 13.65567 45.021775 H 0.0 **** 0.0
11500 M 38.065053 12.854754 45.119761 M 0.0 **** 0.0
11501 O 20.99467 23.731885 32.257482 O 0.0 **** 0.0
11502 H 20.093061 23.867272 32.549029 H 0.0 **** 0.0
11503 H 21.352589 24.614957 32.166342 H 0.0 **** 0.0
11504 M 20.925071 23.862261 32.283136 M 0.0 **** 0.0
11505 O 13.900569 35.733444 1.630547 O 0.0 **** 0.0
11506 H 14.48314 35.301908 2.25554 H 0.0 **** 0.0
11507 H 14.427942 35.829128 0.837483 H 0.0 **** 0.0
11508 M 14.042655 35.690451 1.609032 M 0.0 **** 0.0
11509 O 14.20911 38.761906 0.034436 O 0.0 **** 0.0
11510 H 14.057617 37.817347 0.001453 H 0.0 **** 0.0
11511 H 15.161579 38.851211 0.066931 H 0.0 **** 0.0
11512 M 14.311645 38.652422 0.034374 M 0.0 **** 0.0
11513 O 4.638084 5.141514 0.082296 O 0.0 **** 0.0
11514 H 3.841249 4.615278 0.148301 H 0.0 **** 0.0
11515 H 5.342979 4.499789 -0.004546 H 0.0 **** 0.0
11516 M 4.626315 4.992001 0.079629 M 0.0 **** 0.0
11517 O 29.379847 31.888196 10.484683 O 0.0 **** 0.0
11518 H 28.950909 32.743765 10.469134 H 0.0 **** 0.0
11519 H 30.278355 32.075108 10.756667 H 0.0 **** 0.0
11520 M 29.439958 32.021647 10.51751 M 0.0 **** 0.0
11521 O 18.178011 45.89082 30.831207 O 0.0 **** 0.0
11522 H 18.135144 46.845776 30.880721 H 0.0 **** 0.0
11523 H 18.699087 45.71427 30.04792 H 0.0 **** 0.0
11524 M 18.239228 45.990466 30.737275 M 0.0 **** 0.0
11525 O 29.090284 13.722418 34.155655 O 0.0 **** 0.0
11526 H 28.692009 14.587869 34.248401 H 0.0 **** 0.0
11527 H 28.63372 13.178132 34.797162 H 0.0 **** 0.0
11528 M 28.980853 13.763531 34.249649 M 0.0 **** 0.0
11529 O 3.715282 33.318406 15.711397 O 0.0 **** 0.0
11530 H 3.041826 33.993749 15.792619 H 0.0 **** 0.0
11531 H 3.229908 32.518552 15.509225 H 0.0 **** 0.0
11532 M 3.566937 33.302467 15.695914 M 0.0 **** 0.0
11533 O 2.365268 33.349166 33.673491 O 0.0 **** 0.0
11534 H 2.463766 34.002253 32.980667 H 0.0 **** 0.0
11535 H 2.209326 33.862139 34.46644 H 0.0 **** 0.0
11536 M 2.357914 33.498436 33.686308 M 0.0 **** 0.0
11537 O 13.965704 4.57059 47.584896 O 0.0 **** 0.0
11538 H 14.846315 4.912911 47.431369 H 0.0 **** 0.0
11539 H 14.107909 3.719855 47.999934 H 0.0 **** 0.0
11540 M 14.096637 4.505507 47.618373 M 0.0 **** 0.0
11541 O 41.063143 12.611037 19.675406 O 0.0 **** 0.0
11542 H 42.003756 12.554257 19.507322 H 0.0 **** 0.0
11543 H 40.854547 13.538265 19.561541 H 0.0 **** 0.0
11544 M 41.156851 12.722465 19.639313 M 0.0 **** 0.0
11545 O 9.485973 14.485169 19.628209 O 0.0 **** 0.0
11546 H 8.864139 13.760667 19.560037 H 0.0 **** 0.0
11547 H 10.298346 14.07683 19.927439 H 0.0 **** 0.0
11548 M 9.510365 14.340151 19.657787 M 0.0 **** 0.0
11549 O 41.74533 34.301009 29.95876 O 0.0 **** 0.0
11550 H 42.576999 33.835419 30.046977 H 0.0 **** 0.0
11551 H 41.088068 33.608133 29.894273 H 0.0 **** 0.0
11552 M 41.767656 34.15271 29.961798 M 0.0 **** 0.0
11553 O 8.254255 4.055364 6.798557 O 0.0 **** 0.0
11554 H 8.957864 3.906316 7.43018 H 0.0 **** 0.0
11555 H 7.451658 4.009685 7.318152 H 0.0 **** 0.0
11556 M 8.241583 4.030437 6.945927 M 0.0 **** 0.0
11557 O 5.838426 32.353894 4.572357 O 0.0 **** 0.0
11558 H 6.73712 32.356574 4.242856 H 0.0 **** 0.0
11559 H 5.855444 32.950369 5.320793 H 0.0 **** 0.0
11560 M 5.955649 32.430593 4.625986 M 0.0 **** 0.0
11561 O 41.685472 2.819201 13.38064 O 0.0 **** 0.0
11562 H 42.397919 2.33697 12.960994 H 0.0 **** 0.0
11563 H 41.700024 3.680411 12.963105 H 0.0 **** 0.0
11564 M 41.778537 2.867715 13.27347 M 0.0 **** 0.0
11565 O 41.391807 6.728963 39.262633 O 0.0 **** 0.0
11566 H 41.284369 6.2608 40.090588 H 0.0 **** 0.0
11567 H 41.932361 6.148328 38.727009 H 0.0 **** 0.0
11568 M 41.447251 6.594704 39.300055 M 0.0 **** 0.0
11569 O 36.17906 4.878703 41.038493 O 0.0 **** 0.0
11570 H 37.086235 4.576206 40.99657 H 0.0 **** 0.0
11571 H 35.659865 4.075537 41.078377 H 0.0 **** 0.0
11572 M 36.228726 4.737164 41.038232 M 0.0 **** 0.0
11573 O 30.3322 3.565996 0.523805 O 0.0 **** 0.0
11574 H 31.140977 3.054983 0.555016 H 0.0 **** 0.0
11575 H 29.637105 2.911323 0.456911 H 0.0 **** 0.0
11576 M 30.346753 3.416774 0.519237 M 0.0 **** 0.0
11577 O 28.480569 5.79122 16.488409 O 0.0 **** 0.0
11578 H 28.05938 6.650767 16.490995 H 0.0 **** 0.0
11579 H 29.373559 5.962441 16.189277 H 0.0 **** 0.0
11580 M 28.540965 5.923171 16.450447 M 0.0 **** 0.0
11581 O 43.083746 46.78141 29.255664 O 0.0 **** 0.0
11582 H 42.316218 46.589749 29.794546 H 0.0 **** 0.0
11583 H 43.59043 47.406961 29.773531 H 0.0 **** 0.0
11584 M 43.050355 46.836953 29.390941 M 0.0 **** 0.0
11585 O 19.840653 45.347016 27.881914 O 0.0 **** 0.0
11586 H 19.415906 46.204078 27.917477 H 0.0 **** 0.0
11587 H 20.387429 45.317384 28.667017 H 0.0 **** 0.0
11588 M 19.856274 45.452938 27.98697 M 0.0 **** 0.0
11589 O 46.168176 18.254054 21.065317 O 0.0 **** 0.0
11590 H 46.732692 19.02626 21.029977 H 0.0 **** 0.0
11591 H 46.235111 17.867677 20.192127 H 0.0 **** 0.0
11592 M 46.24901 18.303445 20.949014 M 0.0 **** 0.0
11593 O 28.513256 31.007764 26.216318 O 0.0 **** 0.0
11594 H 28.653453 31.86454 26.619441 H 0.0 **** 0.0
11595 H 29.32378 30.527462 26.385398 H 0.0 **** 0.0
11596 M 28.63496 31.055957 26.289567 M 0.0 **** 0.0
11597 O 19.906618 28.290242 39.43842 O 0.0 **** 0.0
11598 H 19.813557 27.757036 40.227889 H 0.0 **** 0.0
11599 H 19.156418 28.884338 39.460262 H 0.0 **** 0.0
11600 M 19.79867 28.298036 39.542278 M 0.0 **** 0.0
11601 O 24.043216 24.843912 23.498814 O 0.0 **** 0.0
11602 H 24.064874 24.51482 24.397401 H 0.0 **** 0.0
11603 H 24.882302 24.575356 23.124593 H 0.0 **** 0.0
11604 M 24.153402 24.767406 23.56594 M 0.0 **** 0.0
11605 O 21.456671 20.035719 8.239985 O 0.0 **** 0.0
11606 H 22.253773 19.535235 8.065707 H 0.0 **** 0.0
11607 H 21.769131 20.905062 8.490664 H 0.0 **** 0.0
11608 M 21.598708 20.082938 8.249765 M 0.0 **** 0.0
11609 O 4.42351 9.058327 43.631298 O 0.0 **** 0.0
11610 H 4.3783 8.335004 43.006007 H 0.0 **** 0.0
11611 H 4.823624 8.675826 44.412215 H 0.0 **** 0.0
11612 M 4.468942 8.916767 43.65122 M 0.0 **** 0.0
11613 O 33.829072 24.978913 6.913053 O 0.0 **** 0.0
11614 H 34.771391 25.146585 6.900834 H 0.0 **** 0.0
11615 H 33.754993 24.024619 6.905077 H 0.0 **** 0.0
11616 M 33.940218 24.878216 6.910468 M 0.0 **** 0.0
11617 O 11.234142 17.808017 10.389944 O 0.0 **** 0.0
11618 H 12.022729 17.891032 9.853783 H 0.0 **** 0.0
11619 H 11.359603 18.43717 11.100334 H 0.0 **** 0.0
11620 M 11.351152 17.899184 10.412247 M 0.0 **** 0.0
11621 O 45.589002 27.945046 19.074236 O 0.0 **** 0.0
11622 H 46.410645 27.577742 19.400149 H 0.0 **** 0.0
11623 H 45.662273 28.884349 19.243267 H 0.0 **** 0.0
11624 M 45.703562 28.018269 19.137595 M 0.0 **** 0.0
11625 O 47.490951 28.978668 9.518228 O 0.0 **** 0.0
11626 H 47.091163 29.72026 9.063873 H 0.0 **** 0.0
11627 H 47.107752 28.206915 9.101353 H 0.0 **** 0.0
11628 M 47.390719 28.974807 9.4067 M 0.0 **** 0.0
11629 O 7.919371 11.040911 28.417376 O 0.0 **** 0.0
11630 H 7.467121 10.415517 28.983575 H 0.0 **** 0.0
11631 H 7.490842 10.947812 27.566538 H 0.0 **** 0.0
11632 M 7.80662 10.948935 28.380938 M 0.0 **** 0.0
11633 O 35.080303 42.89249 39.13162 O 0.0 **** 0.0
11634 H 35.067992 43.849606 39.129433 H 0.0 **** 0.0
11635 H 34.32178 42.641517 38.604474 H 0.0 **** 0.0
11636 M 34.981627 42.982885 39.063859 M 0.0 **** 0.0
11637 O 13.117402 42.947069 41.819703 O 0.0 **** 0.0
11638 H 13.338479 42.155861 42.310969 H 0.0 **** 0.0
11639 H 13.913967 43.477117 41.847302 H 0.0 **** 0.0
11640 M 13.247673 42.913637 41.886124 M 0.0 **** 0.0
11641 O 0.841536 2.203871 47.36717 O 0.0 **** 0.0
11642 H 0.047161 2.460241 47.835647 H 0.0 **** 0.0
11643 H 0.933658 2.858407 46.674837 H 0.0 **** 0.0
11644 M 0.751639 2.320478 47.338513 M 0.0 **** 0.0
11645 O 10.813918 37.590434 29.411258 O 0.0 **** 0.0
11646 H 10.462583 36.700046 29.412175 H 0.0 **** 0.0
11647 H 11.763826 37.473595 29.395417 H 0.0 **** 0.0
11648 M 10.890543 37.461497 29.409348 M 0.0 **** 0.0
11649 O 25.510444 26.997462 39.019098 O 0.0 **** 0.0
11650 H 24.554249 26.990092 38.975889 H 0.0 **** 0.0
11651 H 25.754366 27.892945 38.784918 H 0.0 **** 0.0
11652 M 25.419264 27.111152 38.983589 M 0.0 **** 0.0
11653 O 22.54096 16.573577 11.087415 O 0.0 **** 0.0
11654 H 23.005311 15.982277 10.494987 H 0.0 **** 0.0
11655 H 23.190326 16.807594 11.75058 H 0.0 **** 0.0
11656 M 22.68353 16.52784 11.09647 M 0.0 **** 0.0
11657 O 30.218934 11.18866 42.622874 O 0.0 **** 0.0
11658 H 29.507023 10.981172 42.017598 H 0.0 **** 0.0
11659 H 29.778181 11.443568 43.433422 H 0.0 **** 0.0
11660 M 30.071379 11.19473 42.649152 M 0.0 **** 0.0
11661 O 32.57825 10.604613 20.969097 O 0.0 **** 0.0
11662 H 32.184598 9.972765 20.367404 H 0.0 **** 0.0
11663 H 33.450811 10.254133 21.148063 H 0.0 **** 0.0
11664 M 32.639556 10.478863 20.914982 M 0.0 **** 0.0
11665 O 8.228634 6.643447 34.576982 O 0.0 **** 0.0
11666 H 7.626326 5.989003 34.930759 H 0.0 **** 0.0
11667 H 7.753708 7.035395 33.844145 H 0.0 **** 0.0
11668 M 8.090734 6.609844 34.528458 M 0.0 **** 0.0
11669 O 33.143871 42.396669 33.624645 O 0.0 **** 0.0
11670 H 32.318949 41.915238 33.561749 H 0.0 **** 0.0
11671 H 32.892619 43.31599 33.535482 H 0.0 **** 0.0
11672 M 33.006107 42.452725 33.605179 M 0.0 **** 0.0
11673 O 39.284594 40.765356 37.890914 O 0.0 **** 0.0
11674 H 38.39374 40.593999 37.585556 H 0.0 **** 0.0
11675 H 39.542571 39.961357 38.341759 H 0.0 **** 0.0
11676 M 39.203578 40.640498 37.909538 M 0.0 **** 0.0
11677 O 31.955695 21.450597 9.161734 O 0.0 **** 0.0
11678 H 32.72442 21.948653 9.439639 H 0.0 **** 0.0
11679 H 32.076886 20.584809 9.551543 H 0.0 **** 0.0
11680 M 32.069616 21.403523 9.247209 M 0.0 **** 0.0
11681 O 5.085483 23.252638 35.41939 O 0.0 **** 0.0
11682 H 4.474703 23.956261 35.200094 H 0.0 **** 0.0
11683 H 4.561773 22.45351 35.361498 H 0.0 **** 0.0
11684 M 4.940254 23.240412 35.383906 M 0.0 **** 0.0
11685 O 35.022046 2.735789 26.747056 O 0.0 **** 0.0
11686 H 35.510185 3.53747 26.934824 H 0.0 **** 0.0
11687 H 35.696732 2.075357 26.589395 H 0.0 **** 0.0
11688 M 35.170902 2.753871 26.75091 M 0.0 **** 0.0
11689 O 42.422033 43.878605 36.827578 O 0.0 **** 0.0
11690 H 41.702913 43.263893 36.68189 H 0.0 **** 0.0
11691 H 43.201689 43.411334 36.527539 H 0.0 **** 0.0
11692 M 42.429782 43.740097 36.770519 M 0.0 **** 0.0
11693 O 5.531952 31.249426 47.611763 O 0.0 **** 0.0
11694 H 5.395414 32.196808 47.618998 H 0.0 **** 0.0
11695 H 5.13133 30.955459 46.793647 H 0.0 **** 0.0
11696 M 5.463188 31.333071 47.50796 M 0.0 **** 0.0
11697 O 30.27804 27.752598 16.568238 O 0.0 **** 0.0
11698 H 30.300399 28.709534 16.569109 H 0.0 **** 0.0
11699 H 31.198806 27.491028 16.568939 H 0.0 **** 0.0
11700 M 30.398772 27.841613 16.568439 M 0.0 **** 0.0
11701 O 7.12996 11.566365 18.180642 O 0.0 **** 0.0
11702 H 7.052352 11.73154 19.120282 H 0.0 **** 0.0
11703 H 7.975261 11.127996 18.083042 H 0.0 **** 0.0
11704 M 7.228234 11.531393 18.288434 M 0.0 **** 0.0
11705 O 23.631351 41.463367 13.395454 O 0.0 **** 0.0
11706 H 24.455754 41.708552 13.815541 H 0.0 **** 0.0
11707 H 23.153338 42.287774 13.305534 H 0.0 **** 0.0
11708 M 23.675693 41.600289 13.437719 M 0.0 **** 0.0
11709 O 11.380257 35.619078 47.501809 O 0.0 **** 0.0
11710 H 11.267323 35.234346 46.63264 H 0.0 **** 0.0
11711 H 10.488689 35.780286 47.810592 H 0.0 **** 0.0
11712 M 11.251668 35.590464 47.430073 M 0.0 **** 0.0
11713 O 25.784353 22.740943 32.857726 O 0.0 **** 0.0
11714 H 26.210992 23.27659 33.526523 H 0.0 **** 0.0
11715 H 26.378701 22.002131 32.726823 H 0.0 **** 0.0
11716 M 25.915052 22.714935 32.926583 M 0.0 **** 0.0
11717 O 14.643639 19.552588 36.751438 O 0.0 **** 0.0
11718 H 15.323666 18.899791 36.585158 H 0.0 **** 0.0
11719 H 15.001251 20.09869 37.45152 H 0.0 **** 0.0
11720 M 14.77647 19.53893 36.819772 M 0.0 **** 0.0
11721 O 27.131643 9.035044 13.896072 O 0.0 **** 0.0
11722 H 27.040698 9.464106 14.746874 H 0.0 **** 0.0
11723 H 27.141004 9.754174 13.264413 H 0.0 **** 0.0
11724 M 27.121199 9.182027 13.924125 M 0.0 **** 0.0
11725 O 35.627666 13.295381 3.437235 O 0.0 **** 0.0
11726 H 35.316887 12.450235 3.112623 H 0.0 **** 0.0
11727 H 36.367104 13.077356 4.00462 H 0.0 **** 0.0
11728 M 35.682539 13.159282 3.468313 M 0.0 **** 0.0
11729 O 42.892793 9.023641 13.261622 O 0.0 **** 0.0
11730 H 43.611291 8.853308 13.8707 H 0.0 **** 0.0
11731 H 42.85604 9.977787 13.194656 H 0.0 **** 0.0
11732 M 42.980065 9.123979 13.331019 M 0.0 **** 0.0
11733 O 46.208109 41.372266 45.052544 O 0.0 **** 0.0
11734 H 45.660908 41.042785 45.765454 H 0.0 **** 0.0
11735 H 47.040422 41.592398 45.470904 H 0.0 **** 0.0
11736 M 46.244607 41.358268 45.19736 M 0.0 **** 0.0
11737 O 44.244095 23.612451 39.280775 O 0.0 **** 0.0
11738 H 43.690267 23.261255 38.58352 H 0.0 **** 0.0
11739 H 43.648104 23.741623 40.018568 H 0.0 **** 0.0
11740 M 44.096904 23.584029 39.285964 M 0.0 **** 0.0
11741 O 35.620497 6.025475 21.24628 O 0.0 **** 0.0
11742 H 36.036823 5.936356 22.103578 H 0.0 **** 0.0
11743 H 34.710727 6.248463 21.443312 H 0.0 **** 0.0
11744 M 35.55733 6.042612 21.381247 M 0.0 **** 0.0
11745 O 35.509115 44.942144 21.846896 O 0.0 **** 0.0
11746 H 35.455597 45.894483 21.766808 H 0.0 **** 0.0
11747 H 36.40012 44.727759 21.570531 H 0.0 **** 0.0
11748 M 35.616324 45.036611 21.801266 M 0.0 **** 0.0
11749 O 7.108673 25.553424 7.910661 O 0.0 **** 0.0
11750 H 7.154808 26.495421 7.747129 H 0.0 **** 0.0
11751 H 6.171558 25.361287 7.944242 H 0.0 **** 0.0
11752 M 6.994617 25.649416 7.894026 M 0.0 **** 0.0
11753 O 42.842858 15.540024 35.868046 O 0.0 **** 0.0
11754 H 43.485942 15.196018 36.48799 H 0.0 **** 0.0
11755 H 42.263769 14.799597 35.687343 H 0.0 **** 0.0
11756 M 42.85105 15.401203 35.924274 M 0.0 **** 0.0
11757 O 18.569091 46.969587 20.954598 O 0.0 **** 0.0
11758 H 18.665943 47.410437 21.798695 H 0.0 **** 0.0
11759 H 19.292452 46.343337 20.926527 H 0.0 **** 0.0
11760 M 18.674088 46.945854 21.05906 M 0.0 **** 0.0
11761 O 39.205045 24.532934 14.269696 O 0.0 **** 0.0
11762 H 39.097484 24.957522 15.120804 H 0.0 **** 0.0
11763 H 38.738432 23.701592 14.35555 H 0.0 **** 0.0
11764 M 39.131543 24.480865 14.389639 M 0.0 **** 0.0
11765 O 0.565062 2.014978 23.726134 O 0.0 **** 0.0
11766 H -3.2e-05 2.779543 23.837212 H 0.0 **** 0.0
11767 H -3.2e-05 1.268127 23.923894 H 0.0 **** 0.0
11768 M 0.420384 2.017246 23.765669 M 0.0 **** 0.0
11769 O 35.514247 39.662339 37.342813 O 0.0 **** 0.0
11770 H 34.913218 39.051531 37.769316 H 0.0 **** 0.0
11771 H 35.376499 40.492497 37.798984 H 0.0 **** 0.0
11772 M 35.419674 39.690419 37.455806 M 0.0 **** 0.0
11773 O 6.597093 39.233496 0.970636 O 0.0 **** 0.0
11774 H 6.619227 40.179836 1.11269 H 0.0 **** 0.0
11775 H 5.823533 38.936878 1.450065 H 0.0 **** 0.0
11776 M 6.500901 39.316668 1.050194 M 0.0 **** 0.0
11777 O 9.793774 27.780652 41.804944 O 0.0 **** 0.0
11778 H 10.737063 27.620131 41.779122 H 0.0 **** 0.0
11779 H 9.714598 28.717867 41.982675 H 0.0 **** 0.0
11780 M 9.904391 27.880079 41.824391 M 0.0 **** 0.0
11781 O 2.23573 25.178218 18.919012 O 0.0 **** 0.0
11782 H 1.491128 25.281334 19.511602 H 0.0 **** 0.0
11783 H 2.107895 25.853887 18.253161 H 0.0 **** 0.0
11784 M 2.124047 25.277912 18.909634 M 0.0 **** 0.0
11785 O 39.639274 45.157179 18.54658 O 0.0 **** 0.0
11786 H 39.551586 44.323508 19.008674 H 0.0 **** 0.0
11787 H 39.607756 44.922036 17.619249 H 0.0 **** 0.0
11788 M 39.624014 45.020358 18.487023 M 0.0 **** 0.0
11789 O 44.159775 30.046723 13.661303 O 0.0 **** 0.0
11790 H 44.138557 29.159481 14.019885 H 0.0 **** 0.0
11791 H 45.011608 30.110722 13.229431 H 0.0 **** 0.0
11792 M 44.266104 29.941337 13.651921 M 0.0 **** 0.0
11793 O 42.507549 23.315227 24.574697 O 0.0 **** 0.0
11794 H 42.240808 22.398532 24.505787 H 0.0 **** 0.0
11795 H 43.438457 23.278426 24.794436 H 0.0 **** 0.0
11796 M 42.59257 23.193167 24.594005 M 0.0 **** 0.0
11797 O 9.9669 26.342135 18.068245 O 0.0 **** 0.0
11798 H 9.305521 25.72596 18.383102 H 0.0 **** 0.0
11799 H 10.628647 26.357963 18.759671 H 0.0 **** 0.0
11800 M 9.966947 26.265283 18.197062 M 0.0 **** 0.0
11801 O 20.957487 47.128664 34.903684 O 0.0 **** 0.0
11802 H 21.261874 48.000027 35.157267 H 0.0 **** 0.0
11803 H 20.144423 47.006423 35.393798 H 0.0 **** 0.0
11804 M 20.89237 47.224561 34.998887 M 0.0 **** 0.0
11805 O 23.42049 28.722449 2.084407 O 0.0 **** 0.0
11806 H 23.606676 28.458033 1.183492 H 0.0 **** 0.0
11807 H 22.810336 29.45493 1.998312 H 0.0 **** 0.0
11808 M 23.366216 28.782367 1.958057 M 0.0 **** 0.0
11809 O 24.416533 28.3596 14.59082 O 0.0 **** 0.0
11810 H 25.266279 28.76725 14.758098 H 0.0 **** 0.0
11811 H 24.630045 27.496618 14.235991 H 0.0 **** 0.0
11812 M 24.552643 28.301312 14.566811 M 0.0 **** 0.0
11813 O 28.081735 7.426828 3.011233 O 0.0 **** 0.0
11814 H 27.126021 7.456426 3.055536 H 0.0 **** 0.0
11815 H 28.303391 6.518159 3.214746 H 0.0 **** 0.0
11816 M 27.987767 7.314296 3.042957 M 0.0 **** 0.0
11817 O 22.997485 20.140787 42.780242 O 0.0 **** 0.0
11818 H 22.795316 19.272643 42.431412 H 0.0 **** 0.0
11819 H 23.776622 20.007088 43.319962 H 0.0 **** 0.0
11820 M 23.071344 20.012539 42.804678 M 0.0 **** 0.0
11821 O 20.720077 8.100401 17.426228 O 0.0 **** 0.0
11822 H 21.157328 7.297604 17.710052 H 0.0 **** 0.0
11823 H 19.794883 7.861995 17.367853 H 0.0 **** 0.0
11824 M 20.657614 7.967114 17.455088 M 0.0 **** 0.0
11825 O 8.969343 16.554012 31.871786 O 0.0 **** 0.0
11826 H 9.264688 15.666759 31.667377 H 0.0 **** 0.0
11827 H 8.024417 16.533251 31.720414 H 0.0 **** 0.0
11828 M 8.886188 16.437774 31.826242 M 0.0 **** 0.0
11829 O 32.358987 10.872554 47.062333 O 0.0 **** 0.0
11830 H 32.275045 9.919044 47.061172 H 0.0 **** 0.0
11831 H 33.256494 11.034106 47.353213 H 0.0 **** 0.0
11832 M 32.463134 10.771173 47.099421 M 0.0 **** 0.0
11833 O 29.011875 21.42757 13.01521 O 0.0 **** 0.0
11834 H 28.846159 22.23842 13.496136 H 0.0 **** 0.0
11835 H 29.828124 21.091522 13.385396 H 0.0 **** 0.0
11836 M 29.095151 21.488351 13.124163 M 0.0 **** 0.0
11837 O 13.540845 13.286616 32.903075 O 0.0 **** 0.0
11838 H 12.947128 12.769599 32.358629 H 0.0 **** 0.0
11839 H 14.311818 12.730028 33.012807 H 0.0 **** 0.0
11840 M 13.563536 13.149181 32.847426 M 0.0 **** 0.0
11841 O 46.671934 23.994519 38.660775 O 0.0 **** 0.0
11842 H 46.103211 24.725548 38.902392 H 0.0 **** 0.0
11843 H 46.48553 23.31956 39.313395 H 0.0 **** 0.0
11844 M 46.575268 24.001697 38.775249 M 0.0 **** 0.0
11845 O 45.243066 13.686318 8.308937 O 0.0 **** 0.0
11846 H 45.715889 14.514767 8.22931 H 0.0 **** 0.0
11847 H 45.069304 13.421387 7.405695 H 0.0 **** 0.0
11848 M 45.28135 13.758455 8.183118 M 0.0 **** 0.0
11849 O 38.06744 3.9211 37.368658 O 0.0 **** 0.0
11850 H 37.734172 3.175794 36.868979 H 0.0 **** 0.0
11851 H 39.001084 3.739621 37.476372 H 0.0 **** 0.0
11852 M 38.144295 3.80246 37.318482 M 0.0 **** 0.0
11853 O 30.102543 2.921395 31.265993 O 0.0 **** 0.0
11854 H 29.164371 3.109405 31.23926 H 0.0 **** 0.0
11855 H 30.378585 2.946739 30.349813 H 0.0 **** 0.0
11856 M 30.017782 2.948707 31.145289 M 0.0 **** 0.0
11857 O 28.73497 21.462653 16.756146 O 0.0 **** 0.0
11858 H 28.219272 20.689319 16.984705 H 0.0 **** 0.0
11859 H 29.128303 21.74177 17.582954 H 0.0 **** 0.0
11860 M 28.719305 21.399387 16.891246 M 0.0 **** 0.0
11861 O 31.584567 15.933166 47.321461 O 0.0 **** 0.0
11862 H 31.438187 15.499197 46.480941 H 0.0 **** 0.0
11863 H 32.353915 15.496024 47.686481 H 0.0 **** 0.0
11864 M 31.664314 15.821653 47.260591 M 0.0 **** 0.0
11865 O 28.821911 34.513665 18.014007 O 0.0 **** 0.0
11866 H 28.14225 34.957383 17.506657 H 0.0 **** 0.0
11867 H 29.571893 34.46678 17.421084 H 0.0 **** 0.0
11868 M 28.830913 34.564465 17.873158 M 0.0 **** 0.0
11869 O 20.488835 3.93265 35.738771 O 0.0 **** 0.0
11870 H 19.62634 3.528787 35.834825 H 0.0 **** 0.0
11871 H 20.327046 4.870759 35.8388 H 0.0 **** 0.0
11872 M 20.357714 4.00104 35.763872 M 0.0 **** 0.0
11873 O 20.46644 2.998622 22.237978 O 0.0 **** 0.0
11874 H 21.090928 2.541313 22.801105 H 0.0 **** 0.0
11875 H 20.93934 3.773776 21.93511 H 0.0 **** 0.0
11876 M 20.606919 3.03931 22.271294 M 0.0 **** 0.0
11877 O 5.462994 35.208645 12.263012 O 0.0 **** 0.0
11878 H 4.575114 34.851108 12.271049 H 0.0 **** 0.0
11879 H 5.897397 34.75613 11.539995 H 0.0 **** 0.0
11880 M 5.404944 35.104948 12.171485 M 0.0 **** 0.0
11881 O 23.513594 22.167079 31.598555 O 0.0 **** 0.0
11882 H 23.713536 22.929008 32.142354 H 0.0 **** 0.0
11883 H 22.825958 21.704315 32.07734 H 0.0 **** 0.0
11884 M 23.451163 22.205376 31.729458 M 0.0 **** 0.0
11885 O 7.637509 33.456332 20.043457 O 0.0 **** 0.0
11886 H 8.271025 34.168034 19.951994 H 0.0 **** 0.0
11887 H 8.172256 32.677037 20.195027 H 0.0 **** 0.0
11888 M 7.787061 33.447679 20.051152 M 0.0 **** 0.0
11889 O 38.849828 36.278398 4.138276 O 0.0 **** 0.0
11890 H 37.92543 36.095104 3.970587 H 0.0 **** 0.0
11891 H 38.844446 37.079382 4.662322 H 0.0 **** 0.0
11892 M 38.730804 36.35747 4.183894 M 0.0 **** 0.0
11893 O 28.402553 14.659989 14.821868 O 0.0 **** 0.0
11894 H 28.007666 15.412495 14.381383 H 0.0 **** 0.0
11895 H 27.889031 13.909836 14.522211 H 0.0 **** 0.0
11896 M 28.286265 14.66029 14.72712 M 0.0 **** 0.0
11897 O 41.30028 4.340326 41.395893 O 0.0 **** 0.0
11898 H 41.825011 5.029952 41.802466 H 0.0 **** 0.0
11899 H 41.93939 3.682694 41.121506 H 0.0 **** 0.0
11900 M 41.449266 4.344421 41.412814 M 0.0 **** 0.0
11901 O 34.424231 13.997755 38.389124 O 0.0 **** 0.0
11902 H 33.782513 14.443157 38.942337 H 0.0 **** 0.0
11903 H 33.947109 13.25558 38.017966 H 0.0 **** 0.0
11904 M 34.281006 13.959764 38.41243 M 0.0 **** 0.0
11905 O 13.966796 37.154101 29.823569 O 0.0 **** 0.0
11906 H 14.539865 37.918465 29.763838 H 0.0 **** 0.0
11907 H 14.474786 36.442292 29.434336 H 0.0 **** 0.0
11908 M 14.105185 37.160829 29.766096 M 0.0 **** 0.0
11909 O 21.354902 41.317449 12.502347 O 0.0 **** 0.0
11910 H 20.531462 41.061984 12.08652 H 0.0 **** 0.0
11911 H 22.022693 40.803848 12.047927 H 0.0 **** 0.0
11912 M 21.334977 41.218999 12.390945 M 0.0 **** 0.0
11913 O 47.398357 11.733284 39.725618 O 0.0 **** 0.0
11914 H 47.737186 10.85992 39.922235 H 0.0 **** 0.0
11915 H 46.964431 12.009683 40.532799 H 0.0 **** 0.0
11916 M 47.386183 11.656865 39.854117 M 0.0 **** 0.0
11917 O 47.971302 4.116893 12.054311 O 0.0 **** 0.0
11918 H 48.004832 3.219629 11.722616 H 0.0 **** 0.0
11919 H 47.797361 4.652536 11.280321 H 0.0 **** 0.0
11920 M 47.953328 4.070601 11.912769 M 0.0 **** 0.0
11921 O 5.556791 36.284203 22.026412 O 0.0 **** 0.0
11922 H 5.15363 37.152007 22.001795 H 0.0 **** 0.0
11923 H 5.269426 35.909609 22.859076 H 0.0 **** 0.0
11924 M 5.468395 36.34734 22.129852 M 0.0 **** 0.0
11925 O 30.632943 40.402485 9.317932 O 0.0 **** 0.0
11926 H 30.042931 39.817308 8.842872 H 0.0 **** 0.0
11927 H 31.397736 39.862376 9.516938 H 0.0 **** 0.0
11928 M 30.655317 40.258434 9.282594 M 0.0 **** 0.0
11929 O 7.973178 12.714907 11.13324 O 0.0 **** 0.0
11930 H 7.531221 13.560782 11.206705 H 0.0 **** 0.0
11931 H 8.759639 12.807547 11.670945 H 0.0 **** 0.0
11932 M 8.017279 12.835049 11.211478 M 0.0 **** 0.0
11933 O 35.874262 10.781513 41.405564 O 0.0 **** 0.0
11934 H 36.094576 9.881598 41.165058 H 0.0 **** 0.0
11935 H 34.926824 10.837995 41.281469 H 0.0 **** 0.0
11936 M 35.781181 10.673543 41.35889 M 0.0 **** 0.0
11937 O 38.511058 13.656115 33.38952 O 0.0 **** 0.0
11938 H 37.570873 13.492043 33.316307 H 0.0 **** 0.0
11939 H 38.920396 12.89025 32.986876 H 0.0 **** 0.0
11940 M 38.443103 13.537071 33.328604 M 0.0 **** 0.0
11941 O 38.826366 19.988321 34.744716 O 0.0 **** 0.0
11942 H 39.204823 19.268613 35.249711 H 0.0 **** 0.0
11943 H 38.013407 20.201472 35.202857 H 0.0 **** 0.0
11944 M 38.770744 19.923475 34.86801 M 0.0 **** 0.0
11945 O 40.946944 22.449958 9.627461 O 0.0 **** 0.0
11946 H 41.294448 21.562767 9.53602 H 0.0 **** 0.0
11947 H 39.99658 22.335963 9.634002 H 0.0 **** 0.0
11948 M 40.86977 22.321793 9.616593 M 0.0 **** 0.0
11949 O 31.015865 8.060675 20.224553 O 0.0 **** 0.0
11950 H 30.354068 8.738572 20.087768 H 0.0 **** 0.0
11951 H 30.535216 7.236666 20.145718 H 0.0 **** 0.0
11952 M 30.869617 8.041971 20.196951 M 0.0 **** 0.0
11953 O 31.664177 18.445375 19.343812 O 0.0 **** 0.0
11954 H 30.924568 19.052974 19.338323 H 0.0 **** 0.0
11955 H 32.273681 18.803397 18.698402 H 0.0 **** 0.0
11956 M 31.647522 18.568986 19.260489 M 0.0 **** 0.0
11957 O 9.757937 9.491148 36.100632 O 0.0 **** 0.0
11958 H 10.679609 9.262731 35.979904 H 0.0 **** 0.0
11959 H 9.772354 10.239985 36.696672 H 0.0 **** 0.0
11960 M 9.877768 9.557768 36.161478 M 0.0 **** 0.0
11961 O 26.159484 1.543396 0.547021 O 0.0 **** 0.0
11962 H 26.625876 2.200292 0.030111 H 0.0 **** 0.0
11963 H 26.851733 1.026099 0.958634 H 0.0 **** 0.0
11964 M 26.307805 1.561267 0.533542 M 0.0 **** 0.0
11965 O 38.88057 34.569446 30.343317 O 0.0 **** 0.0
11966 H 38.403824 33.759263 30.523721 H 0.0 **** 0.0
11967 H 38.247272 35.124247 29.887951 H 0.0 **** 0.0
11968 M 38.73847 34.536754 30.308119 M 0.0 **** 0.0
11969 O 22.315864 32.258334 46.29218 O 0.0 **** 0.0
11970 H 23.150593 31.875981 46.02151 H 0.0 **** 0.0
11971 H 22.258726 32.071109 47.229149 H 0.0 **** 0.0
11972 M 22.415405 32.185421 46.377475 M 0.0 **** 0.0
11973 O 40.989364 44.193571 15.097068 O 0.0 **** 0.0
11974 H 41.647738 44.488005 14.467718 H 0.0 **** 0.0
11975 H 40.734165 44.987686 15.566626 H 0.0 **** 0.0
11976 M 41.040976 44.332919 15.076613 M 0.0 **** 0.0
11977 O 26.466623 27.106915 10.531457 O 0.0 **** 0.0
11978 H 26.861619 26.761893 9.730728 H 0.0 **** 0.0
11979 H 26.630108 28.049262 10.492947 H 0.0 **** 0.0
11980 M 26.538115 27.18338 10.424024 M 0.0 **** 0.0
11981 O 39.784965 33.118532 15.091726 O 0.0 **** 0.0
11982 H 40.566937 33.670101 15.068904 H 0.0 **** 0.0
11983 H 39.054927 33.737517 15.103191 H 0.0 **** 0.0
11984 M 39.791613 33.268378 15.090273 M 0.0 **** 0.0
11985 O 19.924386 15.879308 10.863185 O 0.0 **** 0.0
11986 H 20.194868 15.039778 10.491354 H 0.0 **** 0.0
11987 H 20.453377 16.528628 10.39974 H 0.0 **** 0.0
11988 M 20.026729 15.854959 10.756259 M 0.0 **** 0.0
11989 O 42.571172 45.757655 18.456135 O 0.0 **** 0.0
11990 H 41.658743 46.036713 18.532484 H 0.0 **** 0.0
11991 H 42.561459 44.834019 18.707195 H 0.0 **** 0.0
11992 M 42.453126 45.675141 18.498048 M 0.0 **** 0.0
11993 O 35.00118 26.554057 10.125954 O 0.0 **** 0.0
11994 H 35.17431 27.309235 10.688058 H 0.0 **** 0.0
11995 H 35.608486 26.656086 9.393152 H 0.0 **** 0.0
11996 M 35.101086 26.66379 10.104102 M 0.0 **** 0.0
11997 O 37.909191 24.007257 12.344632 O 0.0 **** 0.0
11998 H 38.40436 24.819967 12.241971 H 0.0 **** 0.0
11999 H 38.511994 23.321131 12.05812 H 0.0 **** 0.0
12000 M 38.049745 24.023461 12.294813 M 0.0 **** 0.0
12001 O 6.380081 16.709679 18.490135 O 0.0 **** 0.0
12002 H 6.132406 17.613515 18.684982 H 0.0 **** 0.0
12003 H 5.562894 16.28933 18.22229 H 0.0 **** 0.0
12004 M 6.243765 16.771571 18.48079 M 0.0 **** 0.0
12005 O 12.674782 4.525972 9.783089 O 0.0 **** 0.0
12006 H 12.700652 3.570325 9.735144 H 0.0 **** 0.0
12007 H 11.74986 4.73474 9.914102 H 0.0 **** 0.0
12008 M 12.559692 4.430362 9.793723 M 0.0 **** 0.0
12009 O 32.201335 31.411033 33.215298 O 0.0 **** 0.0
12010 H 32.224579 32.367029 33.257257 H 0.0 **** 0.0
12011 H 31.269307 31.194554 33.189046 H 0.0 **** 0.0
12012 M 32.084999 31.505701 33.217309 M 0.0 **** 0.0
12013 O 22.422489 12.3715 35.609297 O 0.0 **** 0.0
12014 H 21.628496 11.845882 35.706921 H 0.0 **** 0.0
12015 H 22.990568 12.083092 36.323674 H 0.0 **** 0.0
12016 M 22.393569 12.267294 35.713243 M 0.0 **** 0.0
12017 O 44.787772 29.02817 27.879033 O 0.0 **** 0.0
12018 H 44.60583 28.497377 28.654523 H 0.0 **** 0.0
12019 H 44.628562 29.928677 28.16182 H 0.0 **** 0.0
12020 M 44.7441 29.075498 28.014506 M 0.0 **** 0.0
12021 O 35.388647 35.725192 19.542622 O 0.0 **** 0.0
12022 H 35.280454 34.788075 19.380343 H 0.0 **** 0.0
12023 H 36.17269 35.965315 19.048814 H 0.0 **** 0.0
12024 M 35.475165 35.635968 19.458635 M 0.0 **** 0.0
12025 O 39.076104 33.422114 47.628087 O 0.0 **** 0.0
12026 H 38.280313 33.007997 47.294243 H 0.0 **** 0.0
12027 H 38.961453 34.352641 47.435208 H 0.0 **** 0.0
12028 M 38.959556 33.488221 47.56066 M 0.0 **** 0.0
12029 O 34.010584 15.131834 19.326753 O 0.0 **** 0.0
12030 H 33.161116 14.739924 19.529335 H 0.0 **** 0.0
12031 H 33.82049 15.778896 18.647487 H 0.0 **** 0.0
12032 M 33.877507 15.164497 19.265732 M 0.0 **** 0.0
12033 O 6.759812 42.875326 30.618501 O 0.0 **** 0.0
12034 H 6.413749 43.767145 30.652097 H 0.0 **** 0.0
12035 H 7.519209 42.934259 30.038784 H 0.0 **** 0.0
12036 M 6.812724 42.997034 30.548591 M 0.0 **** 0.0
12037 O 13.584694 43.965354 18.527097 O 0.0 **** 0.0
12038 H 14.47889 43.64585 18.647764 H 0.0 **** 0.0
12039 H 13.030544 43.216515 18.747066 H 0.0 **** 0.0
12040 M 13.628225 43.828593 18.570703 M 0.0 **** 0.0
12041 O 26.393871 19.552384 26.719105 O 0.0 **** 0.0
12042 H 27.00803 19.80046 27.410116 H 0.0 **** 0.0
12043 H 25.961095 20.371216 26.477346 H 0.0 **** 0.0
12044 M 26.41709 19.688961 26.776615 M 0.0 **** 0.0
12045 O 11.318581 34.307161 27.430244 O 0.0 **** 0.0
12046 H 12.137202 33.811135 27.437079 H 0.0 **** 0.0
12047 H 11.565545 35.173394 27.106395 H 0.0 **** 0.0
12048 M 11.454989 34.354552 27.389662 M 0.0 **** 0.0
12049 O 0.541616 32.335805 22.274666 O 0.0 **** 0.0
12050 H 0.002286 32.818635 21.648386 H 0.0 **** 0.0
12051 H -0.0021 32.271071 23.059785 H 0.0 **** 0.0
12052 M 0.402972 32.389326 22.295 M 0.0 **** 0.0
12053 O 3.96479 40.189302 45.11944 O 0.0 **** 0.0
12054 H 4.786731 40.633569 44.911428 H 0.0 **** 0.0
12055 H 3.32251 40.5845 44.529929 H 0.0 **** 0.0
12056 M 3.987789 40.296764 45.017347 M 0.0 **** 0.0
12057 O 11.1086 21.266426 14.900447 O 0.0 **** 0.0
12058 H 11.596667 21.515437 14.115582 H 0.0 **** 0.0
12059 H 10.196057 21.229299 14.61389 H 0.0 **** 0.0
12060 M 11.054262 21.29355 14.763292 M 0.0 **** 0.0
12061 O 44.278114 10.375029 5.749619 O 0.0 **** 0.0
12062 H 44.622502 11.169785 5.342201 H 0.0 **** 0.0
12063 H 44.794723 10.271815 6.548801 H 0.0 **** 0.0
12064 M 44.388333 10.463555 5.79977 M 0.0 **** 0.0
12065 O 13.872336 21.666092 9.939702 O 0.0 **** 0.0
12066 H 13.234026 22.379097 9.919402 H 0.0 **** 0.0
12067 H 14.615237 22.022846 10.426584 H 0.0 **** 0.0
12068 M 13.885725 21.803035 9.99943 M 0.0 **** 0.0
12069 O 24.492088 4.796992 37.61395 O 0.0 **** 0.0
12070 H 25.261816 5.113322 37.140999 H 0.0 **** 0.0
12071 H 24.171944 5.562735 38.090788 H 0.0 **** 0.0
12072 M 24.549641 4.935511 37.614447 M 0.0 **** 0.0
12073 O 21.52253 19.964727 31.739244 O 0.0 **** 0.0
12074 H 20.720291 20.232243 32.187659 H 0.0 **** 0.0
12075 H 21.544714 19.012558 31.834691 H 0.0 **** 0.0
12076 M 21.422673 19.877083 31.808865 M 0.0 **** 0.0
12077 O 24.379978 17.396171 6.064244 O 0.0 **** 0.0
12078 H 25.142939 17.97343 6.034396 H 0.0 **** 0.0
12079 H 24.079842 17.347983 5.156596 H 0.0 **** 0.0
12080 M 24.439225 17.463899 5.944233 M 0.0 **** 0.0
12081 O 12.814018 4.797004 43.828311 O 0.0 **** 0.0
12082 H 12.133182 5.433056 43.608929 H 0.0 **** 0.0
12083 H 12.3443 4.079986 44.254315 H 0.0 **** 0.0
12084 M 12.666733 4.786639 43.854761 M 0.0 **** 0.0
12085 O 7.149208 14.222143 26.661647 O 0.0 **** 0.0
12086 H 6.905527 13.967716 27.551656 H 0.0 **** 0.0
12087 H 7.910072 13.678782 26.456531 H 0.0 **** 0.0
12088 M 7.215414 14.120016 26.749322 M 0.0 **** 0.0
12089 O 30.861245 41.209264 22.735081 O 0.0 **** 0.0
12090 H 31.373996 41.564249 22.008927 H 0.0 **** 0.0
12091 H 31.249526 40.351242 22.906153 H 0.0 **** 0.0
12092 M 30.976588 41.144869 22.664023 M 0.0 **** 0.0
12093 O 18.617183 7.815047 29.98345 O 0.0 **** 0.0
12094 H 19.284484 8.113638 29.365565 H 0.0 **** 0.0
12095 H 19.099068 7.288421 30.621166 H 0.0 **** 0.0
12096 M 18.764293 7.785855 29.985989 M 0.0 **** 0.0
12097 O 4.384353 47.100071 16.306667 O 0.0 **** 0.0
12098 H 5.243961 47.289682 16.682632 H 0.0 **** 0.0
12099 H 4.051361 46.368259 16.826086 H 0.0 **** 0.0
12100 M 4.451766 47.030663 16.421287 M 0.0 **** 0.0
12101 O 26.347121 8.990625 19.699016 O 0.0 **** 0.0
12102 H 26.994545 8.52035 19.173743 H 0.0 **** 0.0
12103 H 26.837379 9.306049 20.458215 H 0.0 **** 0.0
12104 M 26.492759 8.970802 19.728962 M 0.0 **** 0.0
12105 O 7.944391 47.107157 20.974756 O 0.0 **** 0.0
12106 H 7.2488 47.492416 21.507633 H 0.0 **** 0.0
12107 H 7.494599 46.476426 20.412534 H 0.0 **** 0.0
12108 M 7.797768 47.075733 20.971 M 0.0 **** 0.0
12109 O 6.833168 1.25886 43.989469 O 0.0 **** 0.0
12110 H 7.677309 1.453333 44.396697 H 0.0 **** 0.0
12111 H 7.055317 0.761405 43.202438 H 0.0 **** 0.0
12112 M 6.969667 1.220075 43.940849 M 0.0 **** 0.0
12113 O 26.234552 19.554154 0.961605 O 0.0 **** 0.0
12114 H 26.438181 20.029149 1.767299 H 0.0 **** 0.0
12115 H 27.049483 19.572303 0.459823 H 0.0 **** 0.0
12116 M 26.36494 19.617282 1.00051 M 0.0 **** 0.0
12117 O 40.110989 34.306394 12.439232 O 0.0 **** 0.0
12118 H 40.538444 33.450881 12.479335 H 0.0 **** 0.0
12119 H 39.186416 34.10611 12.293355 H 0.0 **** 0.0
12120 M 40.047351 34.171239 12.425692 M 0.0 **** 0.0
12121 O 4.93211 44.670957 45.286031 O 0.0 **** 0.0
12122 H 5.107766 45.609922 45.225053 H 0.0 **** 0.0
12123 H 5.7981 44.263405 45.272214 H 0.0 **** 0.0
12124 M 5.065454 44.738985 45.276456 M 0.0 **** 0.0
12125 O 27.438857 26.370314 2.683279 O 0.0 **** 0.0
12126 H 27.986421 26.597467 3.434814 H 0.0 **** 0.0
12127 H 27.97257 26.594542 1.92098 H 0.0 **** 0.0
12128 M 27.577274 26.428097 2.681901 M 0.0 **** 0.0
12129 O 29.613318 29.271299 30.750626 O 0.0 **** 0.0
12130 H 29.745735 30.193428 30.970567 H 0.0 **** 0.0
12131 H 28.663642 29.153456 30.772003 H 0.0 **** 0.0
12132 M 29.508699 29.374258 30.781518 M 0.0 **** 0.0
12133 O 0.96528 36.018802 39.163968 O 0.0 **** 0.0
12134 H 0.104328 35.816849 39.530307 H 0.0 **** 0.0
12135 H 1.453773 36.398573 39.894294 H 0.0 **** 0.0
12136 M 0.9176 36.041565 39.304355 M 0.0 **** 0.0
12137 O 7.615557 2.160491 4.1686 O 0.0 **** 0.0
12138 H 8.054877 1.368375 3.859119 H 0.0 **** 0.0
12139 H 7.273565 1.923973 5.030766 H 0.0 **** 0.0
12140 M 7.628017 2.028813 4.239351 M 0.0 **** 0.0
12141 O 21.680314 25.545259 25.234707 O 0.0 **** 0.0
12142 H 21.598445 24.639611 24.935829 H 0.0 **** 0.0
12143 H 22.567765 25.601791 25.588917 H 0.0 **** 0.0
12144 M 21.783439 25.436561 25.24179 M 0.0 **** 0.0
12145 O 15.585728 16.137406 14.324314 O 0.0 **** 0.0
12146 H 15.159554 15.280376 14.334467 H 0.0 **** 0.0
12147 H 14.886971 16.755455 14.538749 H 0.0 **** 0.0
12148 M 15.441723 16.106814 14.353064 M 0.0 **** 0.0
12149 O 39.95849 34.814544 28.442157 O 0.0 **** 0.0
12150 H 39.682592 34.229388 27.736677 H 0.0 **** 0.0
12151 H 40.80932 35.148559 28.157988 H 0.0 **** 0.0
12152 M 40.032089 34.782394 28.315469 M 0.0 **** 0.0
12153 O 24.75249 25.560857 46.035514 O 0.0 **** 0.0
12154 H 23.988073 25.472874 46.60486 H 0.0 **** 0.0
12155 H 25.389933 24.94231 46.392297 H 0.0 **** 0.0
12156 M 24.736235 25.470413 46.15407 M 0.0 **** 0.0
12157 O 21.264411 15.846861 20.041968 O 0.0 **** 0.0
12158 H 20.513479 16.272347 19.628095 H 0.0 **** 0.0
12159 H 20.986075 14.939975 20.169695 H 0.0 **** 0.0
12160 M 21.132652 15.785236 20.005338 M 0.0 **** 0.0
12161 O 3.626059 37.590208 42.289328 O 0.0 **** 0.0
12162 H 3.314327 38.468222 42.508743 H 0.0 **** 0.0
12163 H 2.828209 37.08073 42.147568 H 0.0 **** 0.0
12164 M 3.484019 37.637385 42.299269 M 0.0 **** 0.0
12165 O 33.371149 14.167192 27.624885 O 0.0 **** 0.0
12166 H 34.187865 13.836375 27.251036 H 0.0 **** 0.0
12167 H 33.498898 14.107094 28.571615 H 0.0 **** 0.0
12168 M 33.492052 14.11715 27.698221 M 0.0 **** 0.0
12169 O 26.304861 39.031476 16.566522 O 0.0 **** 0.0
12170 H 26.818648 39.704127 17.013503 H 0.0 **** 0.0
12171 H 26.741171 38.209004 16.788787 H 0.0 **** 0.0
12172 M 26.426485 39.012297 16.652194 M 0.0 **** 0.0
12173 O 2.67225 25.550186 6.233389 O 0.0 **** 0.0
12174 H 2.124374 25.746579 5.473461 H 0.0 **** 0.0
12175 H 3.52538 25.927021 6.017995 H 0.0 **** 0.0
12176 M 2.711326 25.623567 6.108535 M 0.0 **** 0.0
12177 O 20.655336 43.516679 42.131425 O 0.0 **** 0.0
12178 H 19.775794 43.219597 42.364612 H 0.0 **** 0.0
12179 H 20.553232 44.451339 41.951946 H 0.0 **** 0.0
12180 M 20.529673 43.598297 42.1383 M 0.0 **** 0.0
12181 O 35.115391 42.839103 46.776026 O 0.0 **** 0.0
12182 H 34.562372 42.098025 46.528636 H 0.0 **** 0.0
12183 H 36.009849 42.528344 46.636012 H 0.0 **** 0.0
12184 M 35.1591 42.704454 46.726434 M 0.0 **** 0.0
12185 O 42.279717 29.747683 47.536111 O 0.0 **** 0.0
12186 H 42.040812 28.824256 47.616336 H 0.0 **** 0.0
12187 H 41.444301 30.203771 47.434655 H 0.0 **** 0.0
12188 M 42.14219 29.687858 47.533393 M 0.0 **** 0.0
12189 O 24.774408 27.890078 17.212465 O 0.0 **** 0.0
12190 H 25.407765 28.340986 17.770827 H 0.0 **** 0.0
12191 H 24.292492 28.594376 16.778933 H 0.0 **** 0.0
12192 M 24.793794 28.037959 17.228445 M 0.0 **** 0.0
12193 O 27.682809 45.965295 43.46214 O 0.0 **** 0.0
12194 H 28.421545 46.295199 42.950612 H 0.0 **** 0.0
12195 H 28.019061 45.902154 44.356107 H 0.0 **** 0.0
12196 M 27.820421 45.999444 43.511097 M 0.0 **** 0.0
12197 O 15.814215 5.822555 42.780054 O 0.0 **** 0.0
12198 H 15.042311 6.362609 42.610544 H 0.0 **** 0.0
12199 H 16.526146 6.271749 42.324414 H 0.0 **** 0.0
12200 M 15.806537 5.949191 42.700027 M 0.0 **** 0.0
12201 O 42.882103 16.0911 40.700262 O 0.0 **** 0.0
12202 H 42.885987 16.894364 41.22082 H 0.0 **** 0.0
12203 H 41.997665 15.740718 40.806238 H 0.0 **** 0.0
12204 M 42.769381 16.149075 40.780466 M 0.0 **** 0.0
12205 O 6.587715 17.153572 13.3921 O 0.0 **** 0.0
12206 H 7.451549 16.849348 13.11377 H 0.0 **** 0.0
12207 H 6.759043 17.97692 13.849236 H 0.0 **** 0.0
12208 M 6.720229 17.220027 13.414989 M 0.0 **** 0.0
12209 O 13.340335 41.340464 5.728555 O 0.0 **** 0.0
12210 H 14.007359 42.025974 5.765753 H 0.0 **** 0.0
12211 H 13.518771 40.790346 6.491286 H 0.0 **** 0.0
12212 M 13.448564 41.357796 5.830956 M 0.0 **** 0.0
12213 O 13.750121 19.839075 28.867495 O 0.0 **** 0.0
12214 H 13.406537 19.128066 28.326528 H 0.0 **** 0.0
12215 H 14.284678 19.400323 29.529291 H 0.0 **** 0.0
12216 M 13.774568 19.691891 28.882963 M 0.0 **** 0.0
12217 O 3.913967 37.955408 45.131408 O 0.0 **** 0.0
12218 H 3.688731 38.198244 46.029477 H 0.0 **** 0.0
12219 H 3.096023 38.053416 44.643975 H 0.0 **** 0.0
12220 M 3.780427 37.99904 45.183974 M 0.0 **** 0.0
12221 O 7.816696 24.78342 0.924469 O 0.0 **** 0.0
12222 H 8.43683 25.512507 0.914698 H 0.0 **** 0.0
12223 H 6.956402 25.200679 0.969395 H 0.0 **** 0.0
12224 M 7.785952 24.930167 0.928969 M 0.0 **** 0.0
12225 O 29.199203 2.12433 27.969799 O 0.0 **** 0.0
12226 H 28.371525 1.644247 27.943411 H 0.0 **** 0.0
12227 H 29.712687 1.680465 28.644742 H 0.0 **** 0.0
12228 M 29.158983 2.006053 28.052822 M 0.0 **** 0.0
12229 O 23.82571 41.931574 30.13012 O 0.0 **** 0.0
12230 H 23.576769 41.082073 30.494269 H 0.0 **** 0.0
12231 H 23.025156 42.454616 30.17218 H 0.0 **** 0.0
12232 M 23.691362 41.889783 30.18212 M 0.0 **** 0.0
12233 O 39.561218 15.769848 40.534872 O 0.0 **** 0.0
12234 H 38.940804 15.99799 41.227163 H 0.0 **** 0.0
12235 H 39.473071 16.473645 39.892121 H 0.0 **** 0.0
12236 M 39.470513 15.889148 40.541214 M 0.0 **** 0.0
12237 O 41.609982 7.088183 45.28288 O 0.0 **** 0.0
12238 H 41.742145 8.034001 45.218149 H 0.0 **** 0.0
12239 H 42.444893 6.750856 45.607477 H 0.0 **** 0.0
12240 M 41.73378 7.166077 45.316146 M 0.0 **** 0.0
12241 O 6.554274 13.632822 15.791495 O 0.0 **** 0.0
12242 H 6.669939 14.581805 15.839254 H 0.0 **** 0.0
12243 H 7.440076 13.28854 15.677246 H 0.0 **** 0.0
12244 M 6.682475 13.710231 15.782984 M 0.0 **** 0.0
12245 O 39.933184 22.711647 42.537035 O 0.0 **** 0.0
12246 H 39.475488 22.016571 42.064159 H 0.0 **** 0.0
12247 H 40.817314 22.709495 42.170239 H 0.0 **** 0.0
12248 M 39.987773 22.622393 42.429546 M 0.0 **** 0.0
12249 O 27.961021 19.815808 21.359939 O 0.0 **** 0.0
12250 H 27.667896 20.642933 21.742261 H 0.0 **** 0.0
12251 H 28.329487 20.060971 20.511201 H 0.0 **** 0.0
12252 M 27.970665 19.953074 21.300232 M 0.0 **** 0.0
12253 O 10.693632 23.711715 19.49684 O 0.0 **** 0.0
12254 H 11.400201 23.399205 20.06193 H 0.0 **** 0.0
12255 H 9.933624 23.774523 20.075348 H 0.0 **** 0.0
12256 M 10.686791 23.67975 19.643235 M 0.0 **** 0.0
12257 O 35.819203 14.390718 47.373562 O 0.0 **** 0.0
12258 H 36.445614 15.041308 47.690689 H 0.0 **** 0.0
12259 H 34.96447 14.80773 47.48201 H 0.0 **** 0.0
12260 M 35.789975 14.527384 47.428041 M 0.0 **** 0.0
12261 O 38.511202 22.292827 5.225407 O 0.0 **** 0.0
12262 H 38.4512 21.857586 6.075815 H 0.0 **** 0.0
12263 H 38.839568 23.169069 5.426912 H 0.0 **** 0.0
12264 M 38.545556 22.349281 5.360065 M 0.0 **** 0.0
12265 O 37.397681 8.362265 4.662058 O 0.0 **** 0.0
12266 H 38.277113 8.376958 4.284419 H 0.0 **** 0.0
12267 H 37.235285 7.43915 4.856261 H 0.0 **** 0.0
12268 M 37.48947 8.245975 4.638576 M 0.0 **** 0.0
12269 O 22.840834 18.242 19.888828 O 0.0 **** 0.0
12270 H 22.770402 19.18248 19.725231 H 0.0 **** 0.0
12271 H 21.934392 17.939848 19.946244 H 0.0 **** 0.0
12272 M 22.715782 18.323714 19.875235 M 0.0 **** 0.0
12273 O 15.852512 40.145438 40.35504 O 0.0 **** 0.0
12274 H 16.747369 40.237125 40.027851 H 0.0 **** 0.0
12275 H 15.901851 40.422877 41.26982 H 0.0 **** 0.0
12276 M 15.973381 40.192691 40.430259 M 0.0 **** 0.0
12277 O 40.261564 8.76225 40.343304 O 0.0 **** 0.0
12278 H 40.147231 9.271972 41.145389 H 0.0 **** 0.0
12279 H 39.895389 7.902598 40.551012 H 0.0 **** 0.0
12280 M 40.200053 8.717454 40.47257 M 0.0 **** 0.0
12281 O 27.137367 48.01666 42.064683 O 0.0 **** 0.0
12282 H 27.216123 47.302659 41.432046 H 0.0 **** 0.0
12283 H 26.462606 47.722019 42.67633 H 0.0 **** 0.0
12284 M 27.061071 47.887541 42.061996 M 0.0 **** 0.0
12285 O 4.254989 27.489906 4.034861 O 0.0 **** 0.0
12286 H 3.892884 26.607083 3.959155 H 0.0 **** 0.0
12287 H 5.190834 27.353588 4.182647 H 0.0 **** 0.0
12288 M 4.328435 27.359443 4.044088 M 0.0 **** 0.0
12289 O 8.846346 36.036432 27.4176 O 0.0 **** 0.0
12290 H 9.372162 35.283029 27.149029 H 0.0 **** 0.0
12291 H 9.468833 36.762639 27.454482 H 0.0 **** 0.0
12292 M 8.993343 36.03295 27.387941 M 0.0 **** 0.0
12293 O 20.465761 13.202209 27.454034 O 0.0 **** 0.0
12294 H 21.341735 13.128916 27.075184 H 0.0 **** 0.0
12295 H 20.325429 14.143799 27.553753 H 0.0 **** 0.0
12296 M 20.559933 13.313362 27.418301 M 0.0 **** 0.0
12297 O 29.105497 13.873814 31.382998 O 0.0 **** 0.0
12298 H 29.533029 14.408055 32.052349 H 0.0 **** 0.0
12299 H 28.819691 13.088272 31.849332 H 0.0 **** 0.0
12300 M 29.123639 13.841644 31.52838 M 0.0 **** 0.0
12301 O 20.924455 3.744208 31.185282 O 0.0 **** 0.0
12302 H 21.176298 3.70664 32.107991 H 0.0 **** 0.0
12303 H 20.351423 2.987476 31.061914 H 0.0 **** 0.0
12304 M 20.883338 3.642528 31.287607 M 0.0 **** 0.0
12305 O 43.73367 22.692572 42.457867 O 0.0 **** 0.0
12306 H 42.890091 22.564696 42.891745 H 0.0 **** 0.0
12307 H 43.80136 21.960935 41.844389 H 0.0 **** 0.0
12308 M 43.634346 22.582544 42.434876 M 0.0 **** 0.0
12309 O 10.938176 1.657082 30.39353 O 0.0 **** 0.0
12310 H 11.444444 0.895744 30.110181 H 0.0 **** 0.0
12311 H 11.597189 2.318107 30.605606 H 0.0 **** 0.0
12312 M 11.087347 1.644241 30.384406 M 0.0 **** 0.0
12313 O 12.303239 7.74125 30.948211 O 0.0 **** 0.0
12314 H 11.451367 7.820275 30.518911 H 0.0 **** 0.0
12315 H 12.938259 7.936985 30.259251 H 0.0 **** 0.0
12316 M 12.275479 7.776423 30.80506 M 0.0 **** 0.0
12317 O 27.380697 32.41193 42.565135 O 0.0 **** 0.0
12318 H 28.171464 32.425406 43.104331 H 0.0 **** 0.0
12319 H 27.513916 31.680691 41.962 H 0.0 **** 0.0
12320 M 27.498979 32.320047 42.55695 M 0.0 **** 0.0
12321 O 12.982442 42.77156 16.590355 O 0.0 **** 0.0
12322 H 12.778008 43.360461 15.863973 H 0.0 **** 0.0
12323 H 13.003698 41.900386 16.194333 H 0.0 **** 0.0
12324 M 12.958993 42.735425 16.446673 M 0.0 **** 0.0
12325 O 39.428956 5.297708 3.821787 O 0.0 **** 0.0
12326 H 38.628031 4.842458 4.081586 H 0.0 **** 0.0
12327 H 40.008573 4.603551 3.50807 H 0.0 **** 0.0
12328 M 39.400626 5.150569 3.814885 M 0.0 **** 0.0
12329 O 27.582451 38.252537 37.615951 O 0.0 **** 0.0
12330 H 26.648775 38.079105 37.495956 H 0.0 **** 0.0
12331 H 27.839957 38.734529 36.830074 H 0.0 **** 0.0
12332 M 27.495893 38.292036 37.499988 M 0.0 **** 0.0
12333 O 2.350144 30.464109 38.295637 O 0.0 **** 0.0
12334 H 1.600514 30.172603 38.814587 H 0.0 **** 0.0
12335 H 2.558602 31.331924 38.64157 H 0.0 **** 0.0
12336 M 2.280867 30.537884 38.406353 M 0.0 **** 0.0
12337 O 43.763592 23.39072 9.724569 O 0.0 **** 0.0
12338 H 42.876134 23.477095 9.376449 H 0.0 **** 0.0
12339 H 43.844538 22.463499 9.948034 H 0.0 **** 0.0
12340 M 43.660348 23.283081 9.708611 M 0.0 **** 0.0
12341 O 30.342669 44.371495 44.088523 O 0.0 **** 0.0
12342 H 30.195486 45.229883 43.691363 H 0.0 **** 0.0
12343 H 29.502081 43.921253 44.005324 H 0.0 **** 0.0
12344 M 30.216222 44.423743 44.027031 M 0.0 **** 0.0
12345 O 12.843046 1.18578 28.048727 O 0.0 **** 0.0
12346 H 13.283586 0.365566 27.826459 H 0.0 **** 0.0
12347 H 11.910504 0.98905 27.959899 H 0.0 **** 0.0
12348 M 12.780064 1.055598 28.008903 M 0.0 **** 0.0
12349 O 19.444428 17.767909 33.413221 O 0.0 **** 0.0
12350 H 20.17352 17.411153 32.905895 H 0.0 **** 0.0
12351 H 19.62327 18.706949 33.462701 H 0.0 **** 0.0
12352 M 19.560655 17.842449 33.354611 M 0.0 **** 0.0
12353 O 2.667419 0.833714 2.565327 O 0.0 **** 0.0
12354 H 3.388282 1.269866 3.019591 H 0.0 **** 0.0
12355 H 3.032006 -0.006779 2.28806 H 0.0 **** 0.0
12356 M 2.80637 0.781953 2.587984 M 0.0 **** 0.0
12357 O 45.419758 18.124485 8.211086 O 0.0 **** 0.0
12358 H 45.520433 18.918023 8.736814 H 0.0 **** 0.0
12359 H 44.476697 18.052054 8.064054 H 0.0 **** 0.0
12360 M 45.311922 18.216796 8.259564 M 0.0 **** 0.0
12361 O 18.368942 42.66425 16.73197 O 0.0 **** 0.0
12362 H 18.590173 41.921109 17.293242 H 0.0 **** 0.0
12363 H 17.592671 42.378502 16.250326 H 0.0 **** 0.0
12364 M 18.29789 42.532539 16.742163 M 0.0 **** 0.0
12365 O 32.645005 46.64908 5.507905 O 0.0 **** 0.0
12366 H 32.564236 46.022109 6.226663 H 0.0 **** 0.0
12367 H 33.444025 47.138057 5.704622 H 0.0 **** 0.0
12368 M 32.73695 46.631415 5.625097 M 0.0 **** 0.0
12369 O 45.368285 4.578404 29.482628 O 0.0 **** 0.0
12370 H 44.879642 5.029283 28.794031 H 0.0 **** 0.0
12371 H 46.201426 5.047099 29.531909 H 0.0 **** 0.0
12372 M 45.412385 4.696121 29.400788 M 0.0 **** 0.0
12373 O 5.395728 15.26136 0.448659 O 0.0 **** 0.0
12374 H 6.032643 15.820249 0.003449 H 0.0 **** 0.0
12375 H 5.459277 14.419135 -0.001727 H 0.0 **** 0.0
12376 M 5.485396 15.225089 0.334012 M 0.0 **** 0.0
12377 O 39.599505 46.656547 42.67594 O 0.0 **** 0.0
12378 H 39.417058 47.285506 41.977834 H 0.0 **** 0.0
12379 H 39.782274 47.197237 43.444367 H 0.0 **** 0.0
12380 M 39.599547 46.806277 42.684942 M 0.0 **** 0.0
12381 O 34.580652 45.677646 7.685469 O 0.0 **** 0.0
12382 H 34.127166 46.520457 7.701231 H 0.0 **** 0.0
12383 H 33.879195 45.02708 7.716296 H 0.0 **** 0.0
12384 M 34.432805 45.702256 7.691433 M 0.0 **** 0.0
12385 O 0.778859 44.015512 27.95596 O 0.0 **** 0.0
12386 H -2.3e-05 44.569994 27.909896 H 0.0 **** 0.0
12387 H 1.505558 44.630363 28.056441 H 0.0 **** 0.0
12388 M 0.772179 44.165201 27.962926 M 0.0 **** 0.0
12389 O 42.718554 5.293198 7.496793 O 0.0 **** 0.0
12390 H 43.38978 5.245021 6.816086 H 0.0 **** 0.0
12391 H 42.662575 4.402219 7.842123 H 0.0 **** 0.0
12392 M 42.797313 5.172974 7.453861 M 0.0 **** 0.0
12393 O 31.018634 13.273837 39.077774 O 0.0 **** 0.0
12394 H 31.673514 12.806892 38.558811 H 0.0 **** 0.0
12395 H 30.342787 13.519893 38.446176 H 0.0 **** 0.0
12396 M 31.01595 13.24556 38.930488 M 0.0 **** 0.0
12397 O 1.993361 14.599013 27.784678 O 0.0 **** 0.0
12398 H 2.257113 13.982697 28.467918 H 0.0 **** 0.0
12399 H 2.570411 15.353039 27.905869 H 0.0 **** 0.0
12400 M 2.100994 14.616642 27.887655 M 0.0 **** 0.0
12401 O 28.035006 14.661327 37.777386 O 0.0 **** 0.0
12402 H 28.141864 14.374098 38.684199 H 0.0 **** 0.0
12403 H 27.569666 13.94171 37.350961 H 0.0 **** 0.0
12404 M 27.989116 14.532438 37.838881 M 0.0 **** 0.0
12405 O 20.081744 44.747135 19.250574 O 0.0 **** 0.0
12406 H 20.988102 44.4675 19.121932 H 0.0 **** 0.0
12407 H 19.590735 43.931486 19.349854 H 0.0 **** 0.0
12408 M 20.134914 44.606925 19.246815 M 0.0 **** 0.0
12409 O 12.23123 16.800088 28.106707 O 0.0 **** 0.0
12410 H 13.177871 16.936095 28.146736 H 0.0 **** 0.0
12411 H 12.104722 15.901744 28.411998 H 0.0 **** 0.0
12412 M 12.336217 16.702499 28.150912 M 0.0 **** 0.0
12413 O 45.857368 19.750431 19.000921 O 0.0 **** 0.0
12414 H 45.718777 20.673612 19.212482 H 0.0 **** 0.0
12415 H 46.807613 19.660833 18.928564 H 0.0 **** 0.0
12416 M 45.96127 19.85714 19.018741 M 0.0 **** 0.0
12417 O 31.602551 46.647101 26.166541 O 0.0 **** 0.0
12418 H 30.822934 47.174925 25.993838 H 0.0 **** 0.0
12419 H 32.280157 47.285526 26.38901 H 0.0 **** 0.0
12420 M 31.589493 46.796396 26.172911 M 0.0 **** 0.0
12421 O 10.40852 5.235131 31.912036 O 0.0 **** 0.0
12422 H 11.260192 4.84842 32.115354 H 0.0 **** 0.0
12423 H 10.609477 6.133056 31.648264 H 0.0 **** 0.0
12424 M 10.54327 5.300573 31.904297 M 0.0 **** 0.0
12425 O 24.70279 36.466441 29.398082 O 0.0 **** 0.0
12426 H 25.636001 36.270412 29.314898 H 0.0 **** 0.0
12427 H 24.279 35.608648 29.426745 H 0.0 **** 0.0
12428 M 24.768002 36.331539 29.391102 M 0.0 **** 0.0
12429 O 35.137285 25.399092 18.56211 O 0.0 **** 0.0
12430 H 34.74354 26.202782 18.222587 H 0.0 **** 0.0
12431 H 34.459548 25.016694 19.119492 H 0.0 **** 0.0
12432 M 35.000122 25.453022 18.589999 M 0.0 **** 0.0
12433 O 3.573048 13.965521 13.147134 O 0.0 **** 0.0
12434 H 3.929712 13.202996 12.691529 H 0.0 **** 0.0
12435 H 2.63696 13.781813 13.225996 H 0.0 **** 0.0
12436 M 3.498875 13.844391 13.098906 M 0.0 **** 0.0
12437 O 32.911298 10.71872 6.172123 O 0.0 **** 0.0
12438 H 33.474257 11.304617 6.678118 H 0.0 **** 0.0
12439 H 32.451007 10.199478 6.831477 H 0.0 **** 0.0
12440 M 32.924441 10.727253 6.321302 M 0.0 **** 0.0
12441 O 25.866793 33.873711 16.292377 O 0.0 **** 0.0
12442 H 25.480095 34.425996 15.61291 H 0.0 **** 0.0
12443 H 25.893936 34.432407 17.069134 H 0.0 **** 0.0
12444 M 25.820766 34.015931 16.304831 M 0.0 **** 0.0
12445 O 24.551526 39.285227 32.108593 O 0.0 **** 0.0
12446 H 24.778973 40.131938 32.49275 H 0.0 **** 0.0
12447 H 24.95474 38.641395 32.690939 H 0.0 **** 0.0
12448 M 24.632258 39.311198 32.232317 M 0.0 **** 0.0
12449 O 41.990229 44.848441 28.489293 O 0.0 **** 0.0
12450 H 42.421884 44.429293 29.233751 H 0.0 **** 0.0
12451 H 41.089556 44.525972 28.521397 H 0.0 **** 0.0
12452 M 41.930189 44.753505 28.588703 M 0.0 **** 0.0
12453 O 43.809376 8.226683 5.700012 O 0.0 **** 0.0
12454 H 44.076315 7.793587 4.88921 H 0.0 **** 0.0
12455 H 43.226538 7.598733 6.126871 H 0.0 **** 0.0
12456 M 43.768937 8.090855 5.650863 M 0.0 **** 0.0
12457 O 46.649442 5.411337 13.58132 O 0.0 **** 0.0
12458 H 47.513096 5.739391 13.83174 H 0.0 **** 0.0
12459 H 46.045022 5.839534 14.187582 H 0.0 **** 0.0
12460 M 46.682627 5.508147 13.690986 M 0.0 **** 0.0
12461 O 9.131932 4.596421 41.55222 O 0.0 **** 0.0
12462 H 9.141178 3.752052 41.101461 H 0.0 **** 0.0
12463 H 9.475873 4.406307 42.425026 H 0.0 **** 0.0
12464 M 9.177145 4.463995 41.606247 M 0.0 **** 0.0
12465 O 21.28661 22.895613 43.921485 O 0.0 **** 0.0
12466 H 21.986381 22.243821 43.880045 H 0.0 **** 0.0
12467 H 20.485199 22.381426 44.019364 H 0.0 **** 0.0
12468 M 21.273599 22.746353 43.92871 M 0.0 **** 0.0
12469 O 35.46469 42.995463 41.412716 O 0.0 **** 0.0
12470 H 35.205562 43.914307 41.482049 H 0.0 **** 0.0
12471 H 34.711945 42.507927 41.747249 H 0.0 **** 0.0
12472 M 35.335158 43.050676 41.464416 M 0.0 **** 0.0
12473 O 0.873528 27.13891 16.431625 O 0.0 **** 0.0
12474 H 4.1e-05 27.529142 16.400508 H 0.0 **** 0.0
12475 H 0.715053 26.207998 16.588202 H 0.0 **** 0.0
12476 M 0.741424 27.069696 16.447685 M 0.0 **** 0.0
12477 O 26.772289 14.558906 20.603017 O 0.0 **** 0.0
12478 H 27.480033 14.432047 19.971168 H 0.0 **** 0.0
12479 H 26.879895 15.460453 20.906106 H 0.0 **** 0.0
12480 M 26.876664 14.658076 20.560932 M 0.0 **** 0.0
12481 O 20.880795 31.047224 36.501266 O 0.0 **** 0.0
12482 H 20.954725 31.946084 36.180619 H 0.0 **** 0.0
12483 H 20.265634 31.1031 37.232486 H 0.0 **** 0.0
12484 M 20.811511 31.169442 36.553825 M 0.0 **** 0.0
12485 O 8.152059 20.719435 23.96575 O 0.0 **** 0.0
12486 H 7.410161 20.185147 23.682283 H 0.0 **** 0.0
12487 H 8.878976 20.101031 24.039218 H 0.0 **** 0.0
12488 M 8.150141 20.571876 23.938867 M 0.0 **** 0.0
12489 O 20.453668 41.50324 23.493015 O 0.0 **** 0.0
12490 H 21.2178 41.871478 23.04947 H 0.0 **** 0.0
12491 H 19.773205 41.48101 22.820182 H 0.0 **** 0.0
12492 M 20.464379 41.547533 23.350105 M 0.0 **** 0.0
12493 O 23.77701 1.89877 31.767775 O 0.0 **** 0.0
12494 H 23.134857 1.644147 32.430372 H 0.0 **** 0.0
12495 H 23.90158 2.838173 31.902802 H 0.0 **** 0.0
12496 M 23.710753 1.986431 31.869881 M 0.0 **** 0.0
12497 O 26.610836 14.464853 23.192181 O 0.0 **** 0.0
12498 H 27.50994 14.764969 23.058872 H 0.0 **** 0.0
12499 H 26.068333 15.210047 22.934103 H 0.0 **** 0.0
12500 M 26.656486 14.598666 23.142078 M 0.0 **** 0.0
12501 O 31.290437 37.090195 31.775991 O 0.0 **** 0.0
12502 H 31.765251 37.904248 31.608366 H 0.0 **** 0.0
12503 H 30.373218 37.356258 31.84041 H 0.0 **** 0.0
12504 M 31.233803 37.228463 31.76278 M 0.0 **** 0.0
12505 O 3.675224 6.5431 33.21168 O 0.0 **** 0.0
12506 H 3.635418 5.58736 33.246389 H 0.0 **** 0.0
12507 H 2.801991 6.809376 32.923946 H 0.0 **** 0.0
12508 M 3.558343 6.45484 33.17929 M 0.0 **** 0.0
12509 O 12.59636 18.446124 18.063538 O 0.0 **** 0.0
12510 H 13.528413 18.632578 17.950664 H 0.0 **** 0.0
12511 H 12.553878 17.496996 18.180077 H 0.0 **** 0.0
12512 M 12.710236 18.348492 18.064007 M 0.0 **** 0.0
12513 O 33.257118 45.11513 0.03513 O 0.0 **** 0.0
12514 H 34.152606 45.451384 -0.000413 H 0.0 **** 0.0
12515 H 32.751199 45.821704 0.436412 H 0.0 **** 0.0
12516 M 33.306988 45.248625 0.081949 M 0.0 **** 0.0
12517 O 18.931442 38.010269 34.821301 O 0.0 **** 0.0
12518 H 19.434934 37.413805 35.375337 H 0.0 **** 0.0
12519 H 18.800757 38.78842 35.363179 H 0.0 **** 0.0
12520 M 18.979166 38.033527 34.961592 M 0.0 **** 0.0
12521 O 34.018975 23.01801 4.972445 O 0.0 **** 0.0
12522 H 34.245358 22.164762 5.342508 H 0.0 **** 0.0
12523 H 34.322686 22.974574 4.065747 H 0.0 **** 0.0
12524 M 34.086834 22.903223 4.903749 M 0.0 **** 0.0
12525 O 12.117296 33.396742 10.573552 O 0.0 **** 0.0
12526 H 12.09699 32.73085 9.886236 H 0.0 **** 0.0
12527 H 12.893366 33.921307 10.376635 H 0.0 **** 0.0
12528 M 12.214043 33.37865 10.460359 M 0.0 **** 0.0
12529 O 46.244045 30.948766 5.304683 O 0.0 **** 0.0
12530 H 46.874338 30.941904 4.584327 H 0.0 **** 0.0
12531 H 46.768822 31.144619 6.080879 H 0.0 **** 0.0
12532 M 46.391909 30.972959 5.311831 M 0.0 **** 0.0
12533 O 8.233292 41.04581 21.294335 O 0.0 **** 0.0
12534 H 8.402843 41.987629 21.272921 H 0.0 **** 0.0
12535 H 7.284086 40.970558 21.196487 H 0.0 **** 0.0
12536 M 8.133486 41.156742 21.279068 M 0.0 **** 0.0
12537 O 47.363563 42.750527 29.663664 O 0.0 **** 0.0
12538 H 46.537518 43.104906 29.334583 H 0.0 **** 0.0
12539 H 48.006755 43.436885 29.486331 H 0.0 **** 0.0
12540 M 47.340156 42.883755 29.598836 M 0.0 **** 0.0
12541 O 41.707402 10.793944 32.854013 O 0.0 **** 0.0
12542 H 41.945776 9.874681 32.973852 H 0.0 **** 0.0
12543 H 42.544942 11.251213 32.778782 H 0.0 **** 0.0
12544 M 41.845132 10.734803 32.859724 M 0.0 **** 0.0
12545 O 20.243466 33.068935 38.191379 O 0.0 **** 0.0
12546 H 19.334486 33.018958 37.895599 H 0.0 **** 0.0
12547 H 20.673575 33.635145 37.550566 H 0.0 **** 0.0
12548 M 20.182165 33.13502 38.071483 M 0.0 **** 0.0
12549 O 38.932429 48.000568 6.272904 O 0.0 **** 0.0
12550 H 38.230765 47.349572 6.262916 H 0.0 **** 0.0
12551 H 39.720493 47.50077 6.485944 H 0.0 **** 0.0
12552 M 38.94349 47.853252 6.298897 M 0.0 **** 0.0
12553 O 24.80392 36.572717 9.592491 O 0.0 **** 0.0
12554 H 24.551235 37.467906 9.818357 H 0.0 **** 0.0
12555 H 23.976651 36.092962 9.55138 H 0.0 **** 0.0
12556 M 24.665673 36.625897 9.616142 M 0.0 **** 0.0
12557 O 13.726033 19.254126 5.439919 O 0.0 **** 0.0
12558 H 14.32762 19.997013 5.390523 H 0.0 **** 0.0
12559 H 14.295948 18.486867 5.492243 H 0.0 **** 0.0
12560 M 13.876 19.251006 5.440294 M 0.0 **** 0.0
12561 O 28.934687 17.684077 35.263049 O 0.0 **** 0.0
12562 H 28.413853 16.902544 35.078204 H 0.0 **** 0.0
12563 H 28.30505 18.404458 35.234116 H 0.0 **** 0.0
12564 M 28.787412 17.676249 35.235683 M 0.0 **** 0.0
12565 O 2.89726 6.199315 3.980617 O 0.0 **** 0.0
12566 H 2.024775 6.566376 4.122974 H 0.0 **** 0.0
12567 H 2.766573 5.519043 3.320027 H 0.0 **** 0.0
12568 M 2.768841 6.15922 3.914277 M 0.0 **** 0.0
12569 O 11.584727 20.916823 9.412128 O 0.0 **** 0.0
12570 H 10.681293 21.138615 9.637615 H 0.0 **** 0.0
12571 H 11.560985 19.97933 9.22037 H 0.0 **** 0.0
12572 M 11.466036 20.825204 9.416446 M 0.0 **** 0.0
12573 O 22.416448 35.782122 34.72459 O 0.0 **** 0.0
12574 H 22.17157 34.88288 34.942828 H 0.0 **** 0.0
12575 H 21.582103 36.240195 34.623271 H 0.0 **** 0.0
12576 M 22.278293 35.725647 34.739557 M 0.0 **** 0.0
12577 O 4.809976 14.444451 32.885123 O 0.0 **** 0.0
12578 H 3.888319 14.26735 33.073306 H 0.0 **** 0.0
12579 H 4.849485 15.391065 32.748778 H 0.0 **** 0.0
12580 M 4.69705 14.542958 32.891759 M 0.0 **** 0.0
12581 O 23.428229 14.215927 18.379309 O 0.0 **** 0.0
12582 H 22.587339 14.520696 18.720259 H 0.0 **** 0.0
12583 H 23.460921 14.553673 17.484274 H 0.0 **** 0.0
12584 M 23.32477 14.298177 18.308379 M 0.0 **** 0.0
12585 O 38.678395 47.252652 12.133036 O 0.0 **** 0.0
12586 H 38.850402 47.421365 11.206657 H 0.0 **** 0.0
12587 H 37.955893 46.624783 12.132511 H 0.0 **** 0.0
12588 M 38.607925 47.193874 12.014381 M 0.0 **** 0.0
12589 O 9.126456 38.168074 35.471541 O 0.0 **** 0.0
12590 H 9.748458 38.462766 34.806335 H 0.0 **** 0.0
12591 H 9.38054 37.263363 35.653661 H 0.0 **** 0.0
12592 M 9.238606 38.089984 35.4097 M 0.0 **** 0.0
12593 O 28.72392 28.060425 41.859709 O 0.0 **** 0.0
12594 H 28.667765 28.778132 41.228858 H 0.0 **** 0.0
12595 H 27.920159 28.130225 42.374806 H 0.0 **** 0.0
12596 M 28.61384 28.161236 41.844891 M 0.0 **** 0.0
12597 O 40.224431 43.815559 33.310945 O 0.0 **** 0.0
12598 H 41.09644 44.202403 33.232326 H 0.0 **** 0.0
12599 H 40.360284 42.882266 33.147433 H 0.0 **** 0.0
12600 M 40.35345 43.745607 33.279949 M 0.0 **** 0.0
12601 O 6.595338 5.551262 14.244558 O 0.0 **** 0.0
12602 H 5.651511 5.525111 14.401838 H 0.0 **** 0.0
12603 H 6.776359 6.464491 14.022134 H 0.0 **** 0.0
12604 M 6.497689 5.664819 14.236219 M 0.0 **** 0.0
12605 O 16.535683 18.157305 4.455348 O 0.0 **** 0.0
12606 H 17.013527 18.589466 3.747442 H 0.0 **** 0.0
12607 H 16.844296 17.251447 4.435161 H 0.0 **** 0.0
12608 M 16.636359 18.096666 4.362143 M 0.0 **** 0.0
12609 O 19.811373 27.003572 1.376311 O 0.0 **** 0.0
12610 H 19.582021 26.740229 0.485089 H 0.0 **** 0.0
12611 H 18.973385 27.217383 1.786542 H 0.0 **** 0.0
12612 M 19.67474 26.997232 1.314738 M 0.0 **** 0.0
12613 O 26.514183 41.350245 31.686795 O 0.0 **** 0.0
12614 H 27.449164 41.14538 31.67849 H 0.0 **** 0.0
12615 H 26.477751 42.301071 31.790869 H 0.0 **** 0.0
12616 M 26.629208 41.445738 31.699055 M 0.0 **** 0.0
12617 O 43.328409 25.485631 13.22212 O 0.0 **** 0.0
12618 H 42.662682 24.821342 13.400325 H 0.0 **** 0.0
12619 H 42.869734 26.154852 12.714194 H 0.0 **** 0.0
12620 M 43.184471 25.486262 13.179911 M 0.0 **** 0.0
12621 O 10.978347 43.304983 17.969968 O 0.0 **** 0.0
12622 H 10.637038 42.622003 17.392668 H 0.0 **** 0.0
12623 H 10.200519 43.771593 18.275724 H 0.0 **** 0.0
12624 M 10.835084 43.277285 17.935207 M 0.0 **** 0.0
12625 O 12.598137 32.317508 22.368127 O 0.0 **** 0.0
12626 H 11.70795 32.164425 22.684924 H 0.0 **** 0.0
12627 H 12.482546 32.642515 21.475245 H 0.0 **** 0.0
12628 M 12.469385 32.339516 22.294381 M 0.0 **** 0.0
12629 O 6.358858 28.246552 31.655117 O 0.0 **** 0.0
12630 H 6.574646 27.322571 31.528934 H 0.0 **** 0.0
12631 H 5.980166 28.286801 32.533297 H 0.0 **** 0.0
12632 M 6.338004 28.133423 31.751382 M 0.0 **** 0.0
12633 O 15.135842 37.049636 11.487693 O 0.0 **** 0.0
12634 H 15.788416 37.645835 11.85501 H 0.0 **** 0.0
12635 H 14.309806 37.322444 11.887029 H 0.0 **** 0.0
12636 M 15.113637 37.16088 11.585834 M 0.0 **** 0.0
12637 O 45.368774 38.701861 12.800179 O 0.0 **** 0.0
12638 H 46.305165 38.74504 12.606435 H 0.0 **** 0.0
12639 H 45.039394 39.575341 12.588587 H 0.0 **** 0.0
12640 M 45.446479 38.819205 12.748291 M 0.0 **** 0.0
12641 O 7.728421 25.332453 16.733373 O 0.0 **** 0.0
12642 H 8.169052 24.621888 16.267358 H 0.0 **** 0.0
12643 H 7.937533 26.117439 16.227114 H 0.0 **** 0.0
12644 M 7.811596 25.34198 16.60891 M 0.0 **** 0.0
12645 O 5.377002 32.196755 8.713057 O 0.0 **** 0.0
12646 H 4.667823 32.736493 8.363805 H 0.0 **** 0.0
12647 H 5.278851 31.354649 8.268701 H 0.0 **** 0.0
12648 M 5.273654 32.158048 8.611465 M 0.0 **** 0.0
12649 O 3.100575 34.503776 24.108979 O 0.0 **** 0.0
12650 H 2.168496 34.721623 24.109352 H 0.0 **** 0.0
12651 H 3.545139 35.351414 24.098865 H 0.0 **** 0.0
12652 M 3.038167 34.640172 24.107732 M 0.0 **** 0.0
12653 O 14.26946 0.198166 4.44249 O 0.0 **** 0.0
12654 H 14.734984 0.55453 3.685839 H 0.0 **** 0.0
12655 H 13.397362 -0.013798 4.109707 H 0.0 **** 0.0
12656 M 14.217414 0.216651 4.303029 M 0.0 **** 0.0
12657 O 10.818365 30.808913 29.63659 O 0.0 **** 0.0
12658 H 10.764006 30.512425 30.545088 H 0.0 **** 0.0
12659 H 9.945523 30.646905 29.278638 H 0.0 **** 0.0
12660 M 10.699672 30.75022 29.707067 M 0.0 **** 0.0
12661 O 32.904205 5.267877 44.959665 O 0.0 **** 0.0
12662 H 33.654644 5.004512 44.42702 H 0.0 **** 0.0
12663 H 32.882597 6.222192 44.888641 H 0.0 **** 0.0
12664 M 32.997505 5.356327 44.882388 M 0.0 **** 0.0
12665 O 47.47472 25.581022 10.051575 O 0.0 **** 0.0
12666 H 48.000289 24.781263 10.071345 H 0.0 **** 0.0
12667 H 48.001026 26.225808 10.524314 H 0.0 **** 0.0
12668 M 47.609373 25.561184 10.114622 M 0.0 **** 0.0
12669 O 35.942578 41.888718 3.740623 O 0.0 **** 0.0
12670 H 36.341011 41.018788 3.767123 H 0.0 **** 0.0
12671 H 36.581597 42.431385 3.278675 H 0.0 **** 0.0
12672 M 36.075385 41.846825 3.68488 M 0.0 **** 0.0
12673 O 39.785678 5.766122 29.561607 O 0.0 **** 0.0
12674 H 40.208163 6.542282 29.929453 H 0.0 **** 0.0
12675 H 39.30626 5.38298 30.296175 H 0.0 **** 0.0
12676 M 39.778389 5.816433 29.70273 M 0.0 **** 0.0
12677 O 24.689537 19.900107 22.43998 O 0.0 **** 0.0
12678 H 25.615358 20.021513 22.229397 H 0.0 **** 0.0
12679 H 24.626006 20.108974 23.37195 H 0.0 **** 0.0
12680 M 24.799921 19.942386 22.532327 M 0.0 **** 0.0
12681 O 26.148752 31.285537 34.949858 O 0.0 **** 0.0
12682 H 26.236138 30.930126 35.834321 H 0.0 **** 0.0
12683 H 25.509327 31.992437 35.037367 H 0.0 **** 0.0
12684 M 26.078084 31.330532 35.074282 M 0.0 **** 0.0
12685 O 25.04048 35.256034 19.001588 O 0.0 **** 0.0
12686 H 25.058554 34.547981 19.645454 H 0.0 **** 0.0
12687 H 25.940298 35.581577 18.977547 H 0.0 **** 0.0
12688 M 25.157982 35.207068 19.080933 M 0.0 **** 0.0
12689 O 44.133415 23.286402 15.141055 O 0.0 **** 0.0
12690 H 44.730987 23.179234 15.88109 H 0.0 **** 0.0
12691 H 43.950174 24.225525 15.114603 H 0.0 **** 0.0
12692 M 44.186455 23.392902 15.232403 M 0.0 **** 0.0
12693 O 16.478519 7.370261 40.337736 O 0.0 **** 0.0
12694 H 17.278211 6.844225 40.340627 H 0.0 **** 0.0
12695 H 15.769076 6.728292 40.309552 H 0.0 **** 0.0
12696 M 16.490072 7.220742 40.334499 M 0.0 **** 0.0
12697 O 42.699 22.319164 1.464144 O 0.0 **** 0.0
12698 H 43.636309 22.504083 1.405105 H 0.0 **** 0.0
12699 H 42.633647 21.371231 1.348475 H 0.0 **** 0.0
12700 M 42.810622 22.221489 1.441779 M 0.0 **** 0.0
12701 O 3.408949 7.178156 37.606159 O 0.0 **** 0.0
12702 H 4.247148 7.582231 37.381716 H 0.0 **** 0.0
12703 H 3.627561 6.268439 37.80828 H 0.0 **** 0.0
12704 M 3.544234 7.113428 37.603301 M 0.0 **** 0.0
12705 O 44.393682 7.642015 20.056884 O 0.0 **** 0.0
12706 H 45.178567 7.172715 20.339624 H 0.0 **** 0.0
12707 H 43.681955 7.013233 20.176492 H 0.0 **** 0.0
12708 M 44.403047 7.501447 20.10839 M 0.0 **** 0.0
12709 O 29.248613 42.487143 1.141583 O 0.0 **** 0.0
12710 H 28.926105 42.064028 0.34585 H 0.0 **** 0.0
12711 H 30.182718 42.620574 0.98073 H 0.0 **** 0.0
12712 M 29.326905 42.45006 1.019128 M 0.0 **** 0.0
12713 O 7.710398 34.674278 10.059235 O 0.0 **** 0.0
12714 H 8.007067 34.555627 10.961531 H 0.0 **** 0.0
12715 H 7.438579 35.590982 10.014559 H 0.0 **** 0.0
12716 M 7.713579 34.776439 10.169021 M 0.0 **** 0.0
12717 O 33.519593 10.602883 2.103219 O 0.0 **** 0.0
12718 H 33.679277 11.536417 1.964496 H 0.0 **** 0.0
12719 H 34.388429 10.202824 2.067096 H 0.0 **** 0.0
12720 M 33.651256 10.671174 2.080837 M 0.0 **** 0.0
12721 O 41.454682 4.751308 25.524084 O 0.0 **** 0.0
12722 H 41.426244 3.794677 25.507441 H 0.0 **** 0.0
12723 H 40.53589 5.018267 25.552038 H 0.0 **** 0.0
12724 M 41.333425 4.663021 25.525532 M 0.0 **** 0.0
12725 O 21.916542 0.819088 10.726569 O 0.0 **** 0.0
12726 H 21.515272 0.867871 9.858911 H 0.0 **** 0.0
12727 H 22.309937 1.681771 10.857893 H 0.0 **** 0.0
12728 M 21.915534 0.935767 10.632309 M 0.0 **** 0.0
12729 O 29.837496 31.695641 2.527233 O 0.0 **** 0.0
12730 H 28.907618 31.884017 2.400464 H 0.0 **** 0.0
12731 H 29.936178 30.782316 2.258295 H 0.0 **** 0.0
12732 M 29.731092 31.602838 2.476578 M 0.0 **** 0.0
12733 O 3.266597 3.994087 13.992959 O 0.0 **** 0.0
12734 H 3.815189 4.597591 13.491902 H 0.0 **** 0.0
12735 H 3.133025 4.432542 14.833283 H 0.0 **** 0.0
12736 M 3.319724 4.127471 14.036389 M 0.0 **** 0.0
12737 O 25.473159 32.012274 44.213687 O 0.0 **** 0.0
12738 H 26.138658 32.682578 44.368708 H 0.0 **** 0.0
12739 H 24.680318 32.505457 44.00297 H 0.0 **** 0.0
12740 M 25.456858 32.161215 44.206557 M 0.0 **** 0.0
12741 O 17.700695 14.233322 33.981113 O 0.0 **** 0.0
12742 H 18.169595 15.032707 33.741644 H 0.0 **** 0.0
12743 H 16.829148 14.534204 34.238223 H 0.0 **** 0.0
12744 M 17.649151 14.37417 33.983371 M 0.0 **** 0.0
12745 O 0.930952 40.051326 44.039934 O 0.0 **** 0.0
12746 H -0.00051 40.116452 43.8293 H 0.0 **** 0.0
12747 H 1.146698 40.894987 44.437323 H 0.0 **** 0.0
12748 M 0.839331 40.167662 44.063841 M 0.0 **** 0.0
12749 O 32.134244 15.62412 39.789752 O 0.0 **** 0.0
12750 H 32.511413 16.150488 40.494669 H 0.0 **** 0.0
12751 H 31.18821 15.726101 39.893903 H 0.0 **** 0.0
12752 M 32.061422 15.704556 39.893323 M 0.0 **** 0.0
12753 O 17.693222 33.969563 5.595375 O 0.0 **** 0.0
12754 H 16.929728 33.553774 5.995906 H 0.0 **** 0.0
12755 H 18.06124 33.295687 5.023814 H 0.0 **** 0.0
12756 M 17.642596 33.830072 5.573481 M 0.0 **** 0.0
12757 O 5.974975 15.71625 7.644936 O 0.0 **** 0.0
12758 H 5.436405 16.288954 7.098877 H 0.0 **** 0.0
12759 H 6.813945 16.171603 7.715726 H 0.0 **** 0.0
12760 M 6.01343 15.847854 7.584096 M 0.0 **** 0.0
12761 O 25.396897 33.816264 11.261935 O 0.0 **** 0.0
12762 H 25.398171 34.771255 11.196985 H 0.0 **** 0.0
12763 H 26.323178 33.576045 11.284889 H 0.0 **** 0.0
12764 M 25.515636 33.907764 11.256559 M 0.0 **** 0.0
12765 O 5.232115 3.430632 21.841341 O 0.0 **** 0.0
12766 H 5.291868 2.606915 22.32523 H 0.0 **** 0.0
12767 H 6.138895 3.724996 21.755727 H 0.0 **** 0.0
12768 M 5.355844 3.362868 21.892325 M 0.0 **** 0.0
12769 O 5.679284 7.645492 28.242268 O 0.0 **** 0.0
12770 H 5.779652 8.129204 27.422405 H 0.0 **** 0.0
12771 H 4.860701 7.160806 28.136287 H 0.0 **** 0.0
12772 M 5.587343 7.645367 28.123749 M 0.0 **** 0.0
12773 O 8.779001 33.563125 5.158839 O 0.0 **** 0.0
12774 H 8.031575 34.04292 4.801936 H 0.0 **** 0.0
12775 H 8.38989 32.914722 5.745691 H 0.0 **** 0.0
12776 M 8.63351 33.541541 5.188275 M 0.0 **** 0.0
12777 O 20.833733 2.94368 9.637105 O 0.0 **** 0.0
12778 H 19.918196 2.83661 9.37912 H 0.0 **** 0.0
12779 H 20.945073 3.888777 9.740176 H 0.0 **** 0.0
12780 M 20.730786 3.050958 9.617274 M 0.0 **** 0.0
12781 O 20.753769 13.425238 34.15288 O 0.0 **** 0.0
12782 H 20.121991 14.141071 34.221209 H 0.0 **** 0.0
12783 H 21.608244 13.853579 34.204108 H 0.0 **** 0.0
12784 M 20.782277 13.571707 34.168185 M 0.0 **** 0.0
12785 O 22.742899 15.176366 22.412689 O 0.0 **** 0.0
12786 H 22.779558 15.828837 23.112094 H 0.0 **** 0.0
12787 H 23.252666 14.438067 22.746277 H 0.0 **** 0.0
12788 M 22.812849 15.165379 22.544925 M 0.0 **** 0.0
12789 O 45.682926 29.794871 2.751182 O 0.0 **** 0.0
12790 H 45.467833 30.714265 2.908273 H 0.0 **** 0.0
12791 H 46.609562 29.802776 2.511364 H 0.0 **** 0.0
12792 M 45.774012 29.913577 2.740592 M 0.0 **** 0.0
12793 O 17.105372 27.678562 23.86842 O 0.0 **** 0.0
12794 H 17.502825 28.203962 23.174004 H 0.0 **** 0.0
12795 H 17.619136 26.871046 23.882311 H 0.0 **** 0.0
12796 M 17.222019 27.642448 23.781305 M 0.0 **** 0.0
12797 O 20.543274 20.188461 44.055629 O 0.0 **** 0.0
12798 H 21.178662 19.472663 44.067622 H 0.0 **** 0.0
12799 H 19.691055 19.753314 44.080071 H 0.0 **** 0.0
12800 M 20.515517 20.041126 44.060293 M 0.0 **** 0.0
12801 O 13.026137 43.132373 13.581188 O 0.0 **** 0.0
12802 H 13.978235 43.03686 13.55636 H 0.0 **** 0.0
12803 H 12.709056 42.29123 13.910077 H 0.0 **** 0.0
12804 M 13.107427 43.012469 13.620112 M 0.0 **** 0.0
12805 O 37.923035 16.165323 36.470472 O 0.0 **** 0.0
12806 H 38.562416 15.544314 36.121519 H 0.0 **** 0.0
12807 H 38.441874 16.773789 36.996593 H 0.0 **** 0.0
12808 M 38.071301 16.163717 36.493152 M 0.0 **** 0.0
12809 O 14.714431 16.962813 39.371934 O 0.0 **** 0.0
12810 H 14.661411 16.671541 40.282196 H 0.0 **** 0.0
12811 H 15.632346 16.835434 39.132275 H 0.0 **** 0.0
12812 M 14.825149 16.909221 39.457779 M 0.0 **** 0.0
12813 O 29.209669 28.004055 36.335969 O 0.0 **** 0.0
12814 H 28.90202 27.994402 35.429609 H 0.0 **** 0.0
12815 H 29.14888 27.09192 36.619769 H 0.0 **** 0.0
12816 M 29.162505 27.886055 36.256273 M 0.0 **** 0.0
12817 O 24.143207 43.671787 32.124115 O 0.0 **** 0.0
12818 H 24.773087 44.06267 31.518565 H 0.0 **** 0.0
12819 H 24.345735 42.736361 32.110316 H 0.0 **** 0.0
12820 M 24.249766 43.602079 32.04483 M 0.0 **** 0.0
12821 O 10.746659 12.229289 33.558612 O 0.0 **** 0.0
12822 H 10.98483 13.115872 33.287553 H 0.0 **** 0.0
12823 H 10.248539 11.878309 32.820426 H 0.0 **** 0.0
12824 M 10.713382 12.297853 33.429416 M 0.0 **** 0.0
12825 O 28.159669 19.345575 25.423467 O 0.0 **** 0.0
12826 H 28.489001 19.631983 24.571563 H 0.0 **** 0.0
12827 H 28.8884 18.86175 25.812174 H 0.0 **** 0.0
12828 M 28.295114 19.320303 25.364172 M 0.0 **** 0.0
12829 O 1.396524 36.994271 29.862968 O 0.0 **** 0.0
12830 H 1.607665 36.415202 30.595312 H 0.0 **** 0.0
12831 H 1.104765 36.404936 29.167419 H 0.0 **** 0.0
12832 M 1.386204 36.844701 29.867678 M 0.0 **** 0.0
12833 O 40.813365 26.024713 23.167508 O 0.0 **** 0.0
12834 H 41.550391 26.493687 22.776249 H 0.0 **** 0.0
12835 H 41.197021 25.543665 23.90074 H 0.0 **** 0.0
12836 M 40.956826 26.023167 23.211285 M 0.0 **** 0.0
12837 O 0.804766 27.843711 29.234323 O 0.0 **** 0.0
12838 H 1.237513 28.559838 29.69921 H 0.0 **** 0.0
12839 H -0.0036 28.230099 28.897459 H 0.0 **** 0.0
12840 M 0.756682 27.984847 29.250711 M 0.0 **** 0.0
12841 O 16.497638 35.075796 21.367939 O 0.0 **** 0.0
12842 H 16.047814 34.353195 21.805815 H 0.0 **** 0.0
12843 H 16.820652 34.697159 20.550305 H 0.0 **** 0.0
12844 M 16.481405 34.934823 21.319325 M 0.0 **** 0.0
12845 O 46.697854 26.942502 31.501915 O 0.0 **** 0.0
12846 H 46.170384 26.143836 31.51363 H 0.0 **** 0.0
12847 H 46.057428 27.65242 31.456098 H 0.0 **** 0.0
12848 M 46.548349 26.931141 31.497549 M 0.0 **** 0.0
12849 O 28.883369 38.026892 15.934618 O 0.0 **** 0.0
12850 H 28.723875 37.987532 14.991622 H 0.0 **** 0.0
12851 H 29.83106 38.136017 16.013379 H 0.0 **** 0.0
12852 M 28.984268 38.035823 15.823985 M 0.0 **** 0.0
12853 O 28.808828 11.060743 14.807428 O 0.0 **** 0.0
12854 H 29.035449 10.344343 14.214433 H 0.0 **** 0.0
12855 H 28.334783 11.685609 14.258748 H 0.0 **** 0.0
12856 M 28.777155 11.049025 14.66128 M 0.0 **** 0.0
12857 O 14.758425 1.020128 19.798421 O 0.0 **** 0.0
12858 H 13.815357 0.901043 19.68586 H 0.0 **** 0.0
12859 H 14.876999 1.968954 19.841982 H 0.0 **** 0.0
12860 M 14.652879 1.126346 19.789588 M 0.0 **** 0.0
12861 O 16.323997 -0.006903 23.241915 O 0.0 **** 0.0
12862 H 17.276969 0.080938 23.222973 H 0.0 **** 0.0
12863 H 16.000199 0.893759 23.255767 H 0.0 **** 0.0
12864 M 16.404539 0.119638 23.241263 M 0.0 **** 0.0
12865 O 26.997174 8.40936 5.456026 O 0.0 **** 0.0
12866 H 26.678369 8.06563 6.290557 H 0.0 **** 0.0
12867 H 27.650892 7.772213 5.16806 H 0.0 **** 0.0
12868 M 27.040047 8.283795 5.525994 M 0.0 **** 0.0
12869 O 27.269712 6.008789 19.430355 O 0.0 **** 0.0
12870 H 27.519037 6.455793 18.621496 H 0.0 **** 0.0
12871 H 27.529107 6.611409 20.127343 H 0.0 **** 0.0
12872 M 27.334835 6.143154 19.416034 M 0.0 **** 0.0
12873 O 32.966941 44.600092 18.01244 O 0.0 **** 0.0
12874 H 32.293697 44.085523 17.567255 H 0.0 **** 0.0
12875 H 33.186645 45.295471 17.392434 H 0.0 **** 0.0
12876 M 32.908882 44.623238 17.876082 M 0.0 **** 0.0
12877 O 22.61521 9.510191 19.281481 O 0.0 **** 0.0
12878 H 22.027444 8.754806 19.269069 H 0.0 **** 0.0
12879 H 23.488042 9.137176 19.157983 H 0.0 **** 0.0
12880 M 22.651702 9.365742 19.264083 M 0.0 **** 0.0
12881 O 35.856883 38.845648 32.265013 O 0.0 **** 0.0
12882 H 36.379065 39.016249 33.048881 H 0.0 **** 0.0
12883 H 36.494122 38.563467 31.608866 H 0.0 **** 0.0
12884 M 36.005303 38.831365 32.281363 M 0.0 **** 0.0
12885 O 36.521078 7.58069 23.469425 O 0.0 **** 0.0
12886 H 36.642373 8.137602 24.238428 H 0.0 **** 0.0
12887 H 35.751733 7.942766 23.029837 H 0.0 **** 0.0
12888 M 36.43812 7.698332 23.511594 M 0.0 **** 0.0
12889 O 17.542346 2.553508 24.125285 O 0.0 **** 0.0
12890 H 16.835885 3.165105 23.917699 H 0.0 **** 0.0
12891 H 17.822308 2.800453 25.006686 H 0.0 **** 0.0
12892 M 17.487749 2.663412 24.211542 M 0.0 **** 0.0
12893 O 1.900094 2.379443 29.945451 O 0.0 **** 0.0
12894 H 2.807816 2.512529 30.218505 H 0.0 **** 0.0
12895 H 1.84923 1.448949 29.726769 H 0.0 **** 0.0
12896 M 2.009783 2.277365 29.952411 M 0.0 **** 0.0
12897 O 36.933249 30.136797 29.96881 O 0.0 **** 0.0
12898 H 37.282873 30.943882 30.34644 H 0.0 **** 0.0
12899 H 36.01928 30.115399 30.252413 H 0.0 **** 0.0
12900 M 36.861006 30.237374 30.053456 M 0.0 **** 0.0
12901 O 17.409204 30.097111 20.484384 O 0.0 **** 0.0
12902 H 16.742429 29.650441 19.962727 H 0.0 **** 0.0
12903 H 17.916768 29.389551 20.881834 H 0.0 **** 0.0
12904 M 17.388823 29.949355 20.468484 M 0.0 **** 0.0
12905 O 41.554888 43.814975 22.914032 O 0.0 **** 0.0
12906 H 42.142077 44.478054 22.551038 H 0.0 **** 0.0
12907 H 40.795518 44.309633 23.222086 H 0.0 **** 0.0
12908 M 41.532847 43.96318 22.906999 M 0.0 **** 0.0
12909 O 2.181437 28.595034 15.349779 O 0.0 **** 0.0
12910 H 2.608448 27.872864 14.888952 H 0.0 **** 0.0
12911 H 2.702685 29.365442 15.123947 H 0.0 **** 0.0
12912 M 2.302826 28.601209 15.261878 M 0.0 **** 0.0
12913 O 44.84656 38.705786 39.708855 O 0.0 **** 0.0
12914 H 45.74008 38.584724 40.030096 H 0.0 **** 0.0
12915 H 44.527031 39.478997 40.173908 H 0.0 **** 0.0
12916 M 44.920038 38.789269 39.80951 M 0.0 **** 0.0
12917 O 6.081371 43.594992 21.335474 O 0.0 **** 0.0
12918 H 5.908335 42.776274 21.80022 H 0.0 **** 0.0
12919 H 6.791208 43.381723 20.729772 H 0.0 **** 0.0
12920 M 6.150088 43.462884 21.31743 M 0.0 **** 0.0
12921 O -0.008598 12.279318 29.55163 O 0.0 **** 0.0
12922 H 0.241348 11.359854 29.642967 H 0.0 **** 0.0
12923 H 0.819017 12.758355 29.594118 H 0.0 **** 0.0
12924 M 0.129343 12.222937 29.568761 M 0.0 **** 0.0
12925 O 1.482988 4.164555 11.118152 O 0.0 **** 0.0
12926 H 0.860393 4.813983 10.791277 H 0.0 **** 0.0
12927 H 1.0001 3.338307 11.099098 H 0.0 **** 0.0
12928 M 1.341472 4.141919 11.073869 M 0.0 **** 0.0
12929 O 44.624867 7.496031 24.797193 O 0.0 **** 0.0
12930 H 43.85026 7.312956 25.328884 H 0.0 **** 0.0
12931 H 45.332925 7.022248 25.233556 H 0.0 **** 0.0
12932 M 44.616348 7.411945 24.921116 M 0.0 **** 0.0
12933 O 1.743902 45.223643 11.06459 O 0.0 **** 0.0
12934 H 1.999205 45.26335 11.986258 H 0.0 **** 0.0
12935 H 1.054659 45.88217 10.977899 H 0.0 **** 0.0
12936 M 1.688352 45.313026 11.171477 M 0.0 **** 0.0
12937 O 27.706038 40.628687 23.800777 O 0.0 **** 0.0
12938 H 27.358734 39.869496 23.332549 H 0.0 **** 0.0
12939 H 28.520123 40.315648 24.195113 H 0.0 **** 0.0
12940 M 27.765792 40.491428 23.791318 M 0.0 **** 0.0
12941 O 26.424246 13.07947 26.220354 O 0.0 **** 0.0
12942 H 26.051462 12.213577 26.054552 H 0.0 **** 0.0
12943 H 27.36623 12.925452 26.292276 H 0.0 **** 0.0
12944 M 26.497111 12.948909 26.208336 M 0.0 **** 0.0
12945 O 26.709016 14.636623 4.230688 O 0.0 **** 0.0
12946 H 27.147081 14.965568 3.445752 H 0.0 **** 0.0
12947 H 27.050219 15.179598 4.941313 H 0.0 **** 0.0
12948 M 26.808772 14.74824 4.221175 M 0.0 **** 0.0
12949 O 41.039311 23.950223 15.335732 O 0.0 **** 0.0
12950 H 41.604815 24.72251 15.333285 H 0.0 **** 0.0
12951 H 41.16446 23.558393 14.471419 H 0.0 **** 0.0
12952 M 41.127723 23.998926 15.224776 M 0.0 **** 0.0
12953 O 47.088825 3.112429 16.968999 O 0.0 **** 0.0
12954 H 48.000801 2.857898 16.828486 H 0.0 **** 0.0
12955 H 46.653721 2.304932 17.242608 H 0.0 **** 0.0
12956 M 47.149871 2.976476 16.986037 M 0.0 **** 0.0
12957 O 41.396287 7.462824 12.012871 O 0.0 **** 0.0
12958 H 40.955088 6.62324 11.883756 H 0.0 **** 0.0
12959 H 40.742846 8.013488 12.444165 H 0.0 **** 0.0
12960 M 41.256159 7.425839 12.051554 M 0.0 **** 0.0
12961 O 44.854108 38.705475 10.403188 O 0.0 **** 0.0
12962 H 44.051241 38.188084 10.340425 H 0.0 **** 0.0
12963 H 44.552048 39.612588 10.449389 H 0.0 **** 0.0
12964 M 44.712663 38.755364 10.401068 M 0.0 **** 0.0
12965 O 14.606606 40.063926 13.208806 O 0.0 **** 0.0
12966 H 14.553912 39.423977 12.498934 H 0.0 **** 0.0
12967 H 13.698816 40.19273 13.483679 H 0.0 **** 0.0
12968 M 14.483652 39.998493 13.153121 M 0.0 **** 0.0
12969 O 42.580614 39.344045 5.981837 O 0.0 **** 0.0
12970 H 43.468653 39.053138 6.189172 H 0.0 **** 0.0
12971 H 42.015514 38.79867 6.529063 H 0.0 **** 0.0
12972 M 42.621954 39.23699 6.07843 M 0.0 **** 0.0
12973 O 35.170866 6.839022 6.809656 O 0.0 **** 0.0
12974 H 34.577647 7.583665 6.710522 H 0.0 **** 0.0
12975 H 34.952687 6.259538 6.079707 H 0.0 **** 0.0
12976 M 35.066997 6.860165 6.703523 M 0.0 **** 0.0
12977 O 45.316702 47.435089 36.483482 O 0.0 **** 0.0
12978 H 45.743604 46.596144 36.309832 H 0.0 **** 0.0
12979 H 46.020681 48.001873 36.798756 H 0.0 **** 0.0
12980 M 45.461469 47.400249 36.501611 M 0.0 **** 0.0
12981 O 43.366014 31.747185 30.130252 O 0.0 **** 0.0
12982 H 42.631597 31.700599 29.518133 H 0.0 **** 0.0
12983 H 43.875551 30.956189 29.954396 H 0.0 **** 0.0
12984 M 43.337226 31.639964 30.029381 M 0.0 **** 0.0
12985 O 35.497169 3.787846 32.949526 O 0.0 **** 0.0
12986 H 35.174902 4.680499 33.074199 H 0.0 **** 0.0
12987 H 34.940642 3.250813 33.513532 H 0.0 **** 0.0
12988 M 35.384673 3.83337 33.037686 M 0.0 **** 0.0
12989 O 4.45019 29.815748 2.564963 O 0.0 **** 0.0
12990 H 4.901725 28.97198 2.544956 H 0.0 **** 0.0
12991 H 3.522689 29.58998 2.635666 H 0.0 **** 0.0
12992 M 4.38926 29.678834 2.571453 M 0.0 **** 0.0
12993 O 12.029908 1.801682 43.551195 O 0.0 **** 0.0
12994 H 12.642413 1.475377 42.891959 H 0.0 **** 0.0
12995 H 11.446591 1.06258 43.723525 H 0.0 **** 0.0
12996 M 12.033644 1.665297 43.488865 M 0.0 **** 0.0
12997 O 5.672096 31.112618 32.277689 O 0.0 **** 0.0
12998 H 5.164124 30.339936 32.030394 H 0.0 **** 0.0
12999 H 5.039166 31.830551 32.26351 H 0.0 **** 0.0
13000 M 5.526046 31.10561 32.244217 M 0.0 **** 0.0
13001 O 5.490657 21.221434 4.214687 O 0.0 **** 0.0
13002 H 6.384206 20.878214 4.214269 H 0.0 **** 0.0
13003 H 4.934605 20.44314 4.178724 H 0.0 **** 0.0
13004 M 5.533861 21.077867 4.21003 M 0.0 **** 0.0
13005 O 5.291805 39.41839 42.663269 O 0.0 **** 0.0
13006 H 6.00991 39.586561 43.273412 H 0.0 **** 0.0
13007 H 4.710778 40.172539 42.762746 H 0.0 **** 0.0
13008 M 5.309353 39.536459 42.75411 M 0.0 **** 0.0
13009 O 4.817838 0.236747 28.735507 O 0.0 **** 0.0
13010 H 3.90258 0.515597 28.763318 H 0.0 **** 0.0
13011 H 4.96931 0.001405 27.820139 H 0.0 **** 0.0
13012 M 4.720064 0.242317 28.621889 M 0.0 **** 0.0
13013 O 3.083677 39.57989 23.412733 O 0.0 **** 0.0
13014 H 2.987648 40.518052 23.57662 H 0.0 **** 0.0
13015 H 2.214911 39.29574 23.128599 H 0.0 **** 0.0
13016 M 2.960171 39.663612 23.39734 M 0.0 **** 0.0
13017 O 24.615991 1.298985 5.873018 O 0.0 **** 0.0
13018 H 24.083594 0.664588 6.352938 H 0.0 **** 0.0
13019 H 24.02204 2.029747 5.701445 H 0.0 **** 0.0
13020 M 24.471804 1.311321 5.912491 M 0.0 **** 0.0
13021 O 5.428781 31.753749 20.242435 O 0.0 **** 0.0
13022 H 4.99066 30.95315 19.953784 H 0.0 **** 0.0
13023 H 4.726749 32.401071 20.308424 H 0.0 **** 0.0
13024 M 5.282827 31.734128 20.213931 M 0.0 **** 0.0
13025 O 24.122976 40.090866 21.162149 O 0.0 **** 0.0
13026 H 24.840138 39.96021 21.782501 H 0.0 **** 0.0
13027 H 23.534672 39.351696 21.316277 H 0.0 **** 0.0
13028 M 24.139471 39.979517 21.261292 M 0.0 **** 0.0
13029 O 10.203861 16.575676 11.998276 O 0.0 **** 0.0
13030 H 9.728389 15.744944 12.004607 H 0.0 **** 0.0
13031 H 11.127284 16.323724 12.004459 H 0.0 **** 0.0
13032 M 10.261204 16.437079 11.999878 M 0.0 **** 0.0
13033 O 38.833153 3.113189 10.563485 O 0.0 **** 0.0
13034 H 39.221842 3.172406 11.436206 H 0.0 **** 0.0
13035 H 38.842681 4.012216 10.23502 H 0.0 **** 0.0
13036 M 38.88413 3.235856 10.633156 M 0.0 **** 0.0
13037 O 42.359281 20.186266 34.934563 O 0.0 **** 0.0
13038 H 42.984642 19.558026 35.295766 H 0.0 **** 0.0
13039 H 42.033192 20.665335 35.696395 H 0.0 **** 0.0
13040 M 42.397591 20.16717 35.078326 M 0.0 **** 0.0
13041 O 28.318682 29.884774 37.032739 O 0.0 **** 0.0
13042 H 27.519504 29.433624 37.304782 H 0.0 **** 0.0
13043 H 28.084681 30.812901 37.040085 H 0.0 **** 0.0
13044 M 28.186422 29.945833 37.068504 M 0.0 **** 0.0
13045 O 12.013252 19.214959 26.208002 O 0.0 **** 0.0
13046 H 12.244471 18.287619 26.26099 H 0.0 **** 0.0
13047 H 11.056295 19.222932 26.188051 H 0.0 **** 0.0
13048 M 11.920348 19.097268 26.212231 M 0.0 **** 0.0
13049 O 10.21412 19.082854 7.628186 O 0.0 **** 0.0
13050 H 9.557525 18.633639 8.160462 H 0.0 **** 0.0
13051 H 10.273702 18.559852 6.828719 H 0.0 **** 0.0
13052 M 10.137695 18.958398 7.593982 M 0.0 **** 0.0
13053 O 36.490862 27.66027 33.7433 O 0.0 **** 0.0
13054 H 36.601288 28.53414 33.36862 H 0.0 **** 0.0
13055 H 35.867991 27.226165 33.160365 H 0.0 **** 0.0
13056 M 36.425263 27.716565 33.620714 M 0.0 **** 0.0
13057 O 35.447863 37.167441 29.504847 O 0.0 **** 0.0
13058 H 36.386581 37.185003 29.691204 H 0.0 **** 0.0
13059 H 35.047376 37.620584 30.246805 H 0.0 **** 0.0
13060 M 35.516764 37.227697 29.623683 M 0.0 **** 0.0
13061 O 9.249273 1.182415 13.181637 O 0.0 **** 0.0
13062 H 9.560735 0.291461 13.341079 H 0.0 **** 0.0
13063 H 9.894246 1.742916 13.613002 H 0.0 **** 0.0
13064 M 9.371708 1.140113 13.257268 M 0.0 **** 0.0
13065 O 9.698042 45.951741 29.89011 O 0.0 **** 0.0
13066 H 9.515908 46.583875 30.585424 H 0.0 **** 0.0
13067 H 9.84473 45.125032 30.349743 H 0.0 **** 0.0
13068 M 9.693505 45.926833 30.037957 M 0.0 **** 0.0
13069 O 42.401753 19.747682 41.308981 O 0.0 **** 0.0
13070 H 41.762648 19.035103 41.311388 H 0.0 **** 0.0
13071 H 43.25181 19.307647 41.308238 H 0.0 **** 0.0
13072 M 42.428758 19.600133 41.309194 M 0.0 **** 0.0
13073 O 12.376744 0.790435 21.916673 O 0.0 **** 0.0
13074 H 13.1901 0.329114 21.712068 H 0.0 **** 0.0
13075 H 11.716 0.099904 21.969721 H 0.0 **** 0.0
13076 M 12.39628 0.642983 21.897272 M 0.0 **** 0.0
13077 O 43.952477 21.064303 44.995969 O 0.0 **** 0.0
13078 H 44.65578 21.169455 45.636701 H 0.0 **** 0.0
13079 H 44.05139 20.167595 44.676033 H 0.0 **** 0.0
13080 M 44.05517 20.962974 45.037035 M 0.0 **** 0.0
13081 O 27.148342 24.422929 41.818657 O 0.0 **** 0.0
13082 H 27.27833 25.272131 41.396534 H 0.0 **** 0.0
13083 H 26.203452 24.275936 41.776173 H 0.0 **** 0.0
13084 M 27.044024 24.512821 41.759182 M 0.0 **** 0.0
13085 O 23.984989 29.309049 33.952314 O 0.0 **** 0.0
13086 H 24.214788 28.489627 33.514171 H 0.0 **** 0.0
13087 H 24.82521 29.73706 34.116824 H 0.0 **** 0.0
13088 M 24.121965 29.258943 33.917286 M 0.0 **** 0.0
13089 O 40.934661 27.888186 21.191843 O 0.0 **** 0.0
13090 H 41.192023 27.222227 20.554276 H 0.0 **** 0.0
13091 H 40.835641 28.688521 20.676201 H 0.0 **** 0.0
13092 M 40.954931 27.905388 21.044218 M 0.0 **** 0.0
13093 O 7.381109 13.550258 39.11645 O 0.0 **** 0.0
13094 H 8.279617 13.229649 39.194688 H 0.0 **** 0.0
13095 H 6.958196 13.280489 39.931679 H 0.0 **** 0.0
13096 M 7.441991 13.474682 39.230825 M 0.0 **** 0.0
13097 O 2.064917 28.192092 41.045485 O 0.0 **** 0.0
13098 H 1.574712 27.394994 40.844087 H 0.0 **** 0.0
13099 H 2.364715 28.510996 40.194221 H 0.0 **** 0.0
13100 M 2.040543 28.130877 40.910731 M 0.0 **** 0.0
13101 O 18.152063 7.696003 1.653949 O 0.0 **** 0.0
13102 H 18.747542 7.923118 2.368128 H 0.0 **** 0.0
13103 H 18.704739 7.247051 1.014246 H 0.0 **** 0.0
13104 M 18.299041 7.667605 1.663483 M 0.0 **** 0.0
13105 O 7.934805 42.036041 16.001049 O 0.0 **** 0.0
13106 H 7.642598 42.897872 16.297851 H 0.0 **** 0.0
13107 H 8.866991 42.149431 15.815576 H 0.0 **** 0.0
13108 M 8.01673 42.160882 16.015301 M 0.0 **** 0.0
13109 O 12.235443 38.923716 37.730665 O 0.0 **** 0.0
13110 H 12.006774 38.012674 37.914898 H 0.0 **** 0.0
13111 H 13.093917 39.042564 38.137022 H 0.0 **** 0.0
13112 M 12.316066 38.822305 37.806268 M 0.0 **** 0.0
13113 O 39.012251 44.663489 35.963301 O 0.0 **** 0.0
13114 H 39.314782 44.808184 35.06677 H 0.0 **** 0.0
13115 H 39.736872 44.206514 36.390298 H 0.0 **** 0.0
13116 M 39.143739 44.623513 35.903194 M 0.0 **** 0.0
13117 O 22.950952 7.661593 21.473183 O 0.0 **** 0.0
13118 H 22.06793 8.020841 21.386919 H 0.0 **** 0.0
13119 H 23.529993 8.401021 21.288289 H 0.0 **** 0.0
13120 M 22.912039 7.802237 21.438471 M 0.0 **** 0.0
13121 O 26.885243 5.327081 39.84801 O 0.0 **** 0.0
13122 H 26.68962 5.350074 40.784723 H 0.0 **** 0.0
13123 H 26.126067 4.896663 39.454791 H 0.0 **** 0.0
13124 M 26.763016 5.274925 39.917584 M 0.0 **** 0.0
13125 O 0.584659 5.437742 33.498273 O 0.0 **** 0.0
13126 H 0.686128 6.372274 33.317769 H 0.0 **** 0.0
13127 H 1.451352 5.153994 33.789062 H 0.0 **** 0.0
13128 M 0.708596 5.52105 33.512391 M 0.0 **** 0.0
13129 O 19.82787 26.084574 4.099852 O 0.0 **** 0.0
13130 H 19.135555 25.500198 3.790929 H 0.0 **** 0.0
13131 H 20.572258 25.506827 4.268143 H 0.0 **** 0.0
13132 M 19.834536 25.935808 4.081849 M 0.0 **** 0.0
13133 O 6.293836 6.757574 25.220994 O 0.0 **** 0.0
13134 H 5.516372 7.302457 25.34298 H 0.0 **** 0.0
13135 H 6.931287 7.105988 25.844285 H 0.0 **** 0.0
13136 M 6.275912 6.871927 25.316399 M 0.0 **** 0.0
13137 O 43.840912 7.657349 47.044109 O 0.0 **** 0.0
13138 H 43.889492 7.67794 47.999852 H 0.0 **** 0.0
13139 H 44.611999 8.144715 46.75406 H 0.0 **** 0.0
13140 M 43.94584 7.722374 47.129326 M 0.0 **** 0.0
13141 O 42.199701 9.643388 36.58203 O 0.0 **** 0.0
13142 H 42.336611 10.565149 36.363307 H 0.0 **** 0.0
13143 H 42.071278 9.212706 35.736898 H 0.0 **** 0.0
13144 M 42.200787 9.706252 36.445844 M 0.0 **** 0.0
13145 O 32.094943 41.281614 26.743784 O 0.0 **** 0.0
13146 H 32.911734 40.795073 26.632608 H 0.0 **** 0.0
13147 H 31.923263 41.250491 27.684946 H 0.0 **** 0.0
13148 M 32.177525 41.215346 26.850032 M 0.0 **** 0.0
13149 O 43.627023 27.363472 43.706642 O 0.0 **** 0.0
13150 H 44.508708 27.735893 43.719376 H 0.0 **** 0.0
13151 H 43.045292 28.123565 43.715338 H 0.0 **** 0.0
13152 M 43.665421 27.508448 43.709385 M 0.0 **** 0.0
13153 O 20.08767 44.374149 34.828673 O 0.0 **** 0.0
13154 H 19.877108 43.557015 34.376807 H 0.0 **** 0.0
13155 H 21.043841 44.385124 34.871645 H 0.0 **** 0.0
13156 M 20.183117 44.270951 34.776329 M 0.0 **** 0.0
13157 O 6.399456 26.602166 21.362556 O 0.0 **** 0.0
13158 H 6.790962 25.908496 20.831732 H 0.0 **** 0.0
13159 H 5.984112 26.141175 22.091394 H 0.0 **** 0.0
13160 M 6.396405 26.454355 21.387904 M 0.0 **** 0.0
13161 O 4.359989 25.740101 18.837068 O 0.0 **** 0.0
13162 H 5.143117 25.736121 19.387453 H 0.0 **** 0.0
13163 H 4.072878 26.653222 18.834816 H 0.0 **** 0.0
13164 M 4.423485 25.856482 18.907236 M 0.0 **** 0.0
13165 O 46.455208 42.843578 24.483053 O 0.0 **** 0.0
13166 H 47.22334 42.907734 25.050581 H 0.0 **** 0.0
13167 H 45.763409 42.507121 25.052649 H 0.0 **** 0.0
13168 M 46.46498 42.80872 24.628619 M 0.0 **** 0.0
13169 O 45.752568 29.602734 25.444023 O 0.0 **** 0.0
13170 H 46.139805 29.758935 26.305346 H 0.0 **** 0.0
13171 H 45.060143 30.259413 25.369533 H 0.0 **** 0.0
13172 M 45.7135 29.706793 25.544748 M 0.0 **** 0.0
13173 O 5.348721 35.176852 28.682701 O 0.0 **** 0.0
13174 H 6.267946 34.909931 28.68559 H 0.0 **** 0.0
13175 H 5.376657 36.133632 28.678287 H 0.0 **** 0.0
13176 M 5.46997 35.265163 28.682506 M 0.0 **** 0.0
13177 O 46.417105 16.522563 11.963968 O 0.0 **** 0.0
13178 H 46.558645 17.445673 11.754057 H 0.0 **** 0.0
13179 H 45.498921 16.364569 11.744414 H 0.0 **** 0.0
13180 M 46.317685 16.620507 11.908991 M 0.0 **** 0.0
13181 O 10.51972 31.696901 35.774282 O 0.0 **** 0.0
13182 H 9.615218 31.646509 36.083419 H 0.0 **** 0.0
13183 H 10.775019 30.785786 35.629644 H 0.0 **** 0.0
13184 M 10.436614 31.573816 35.79534 M 0.0 **** 0.0
13185 O 46.177587 33.747581 28.684983 O 0.0 **** 0.0
13186 H 45.35687 33.372877 29.004745 H 0.0 **** 0.0
13187 H 46.851669 33.1346 28.978407 H 0.0 **** 0.0
13188 M 46.158816 33.621145 28.763478 M 0.0 **** 0.0
13189 O 17.601225 17.538555 35.160711 O 0.0 **** 0.0
13190 H 17.419983 17.082517 34.338878 H 0.0 **** 0.0
13191 H 16.905875 18.192641 35.230624 H 0.0 **** 0.0
13192 M 17.489011 17.563907 35.064456 M 0.0 **** 0.0
13193 O 41.367279 37.9775 36.617107 O 0.0 **** 0.0
13194 H 42.000839 38.68656 36.507272 H 0.0 **** 0.0
13195 H 41.896245 37.179771 36.609936 H 0.0 **** 0.0
13196 M 41.516097 37.966149 36.602129 M 0.0 **** 0.0
13197 O 38.092753 19.820182 28.497623 O 0.0 **** 0.0
13198 H 37.344194 19.90018 29.088798 H 0.0 **** 0.0
13199 H 38.808967 20.25912 28.956533 H 0.0 **** 0.0
13200 M 38.088612 19.886612 28.632047 M 0.0 **** 0.0
13201 O 31.565534 -0.001665 0.917243 O 0.0 **** 0.0
13202 H 30.73337 0.454441 0.791947 H 0.0 **** 0.0
13203 H 32.100913 0.610248 1.422377 H 0.0 **** 0.0
13204 M 31.527542 0.135055 0.965867 M 0.0 **** 0.0
13205 O 19.237259 45.912126 7.093753 O 0.0 **** 0.0
13206 H 18.905727 46.7965 7.24931 H 0.0 **** 0.0
13207 H 20.099461 46.044892 6.699785 H 0.0 **** 0.0
13208 M 19.305192 46.042333 7.063234 M 0.0 **** 0.0
13209 O 12.644271 25.011888 29.633441 O 0.0 **** 0.0
13210 H 12.061282 25.733125 29.870438 H 0.0 **** 0.0
13211 H 12.460513 24.848845 28.708304 H 0.0 **** 0.0
13212 M 12.546118 25.083344 29.54535 M 0.0 **** 0.0
13213 O 10.615266 18.567325 44.078029 O 0.0 **** 0.0
13214 H 11.144313 17.906977 44.525554 H 0.0 **** 0.0
13215 H 10.307133 18.130295 43.284122 H 0.0 **** 0.0
13216 M 10.643546 18.426847 44.033687 M 0.0 **** 0.0
13217 O 8.797936 19.472688 26.417241 O 0.0 **** 0.0
13218 H 9.21394 20.016962 27.085773 H 0.0 **** 0.0
13219 H 8.024486 19.969501 26.150445 H 0.0 **** 0.0
13220 M 8.752178 19.605961 26.468669 M 0.0 **** 0.0
13221 O 9.144505 43.889168 13.101974 O 0.0 **** 0.0
13222 H 9.816326 43.798974 12.426142 H 0.0 **** 0.0
13223 H 8.467485 44.430945 12.696573 H 0.0 **** 0.0
13224 M 9.143839 43.946976 12.963563 M 0.0 **** 0.0
13225 O 15.800785 46.368993 0.409834 O 0.0 **** 0.0
13226 H 15.661414 45.502654 0.027393 H 0.0 **** 0.0
13227 H 16.604673 46.686426 -0.00154 H 0.0 **** 0.0
13228 M 15.885852 46.298726 0.308216 M 0.0 **** 0.0
13229 O 10.545471 47.999759 39.505774 O 0.0 **** 0.0
13230 H 9.61562 47.996147 39.732917 H 0.0 **** 0.0
13231 H 10.730816 47.099406 39.238864 H 0.0 **** 0.0
13232 M 10.450165 47.88404 39.500683 M 0.0 **** 0.0
13233 O 31.421124 12.489689 28.045717 O 0.0 **** 0.0
13234 H 32.361368 12.314511 28.007217 H 0.0 **** 0.0
13235 H 31.347571 13.435028 27.91475 H 0.0 **** 0.0
13236 M 31.532071 12.588279 28.024023 M 0.0 **** 0.0
13237 O 33.098426 11.900382 19.054956 O 0.0 **** 0.0
13238 H 33.926487 12.30374 18.794484 H 0.0 **** 0.0
13239 H 32.567272 12.628899 19.376463 H 0.0 **** 0.0
13240 M 33.136434 12.045276 19.062769 M 0.0 **** 0.0
13241 O 7.12741 36.755734 2.806752 O 0.0 **** 0.0
13242 H 7.642723 37.033595 2.04947 H 0.0 **** 0.0
13243 H 6.277492 37.179507 2.687238 H 0.0 **** 0.0
13244 M 7.084577 36.845552 2.694511 M 0.0 **** 0.0
13245 O 32.130684 25.835842 9.419227 O 0.0 **** 0.0
13246 H 32.187546 25.308299 10.215903 H 0.0 **** 0.0
13247 H 33.040159 26.038724 9.200313 H 0.0 **** 0.0
13248 M 32.254387 25.794282 9.493187 M 0.0 **** 0.0
13249 O 27.638167 39.788193 9.744679 O 0.0 **** 0.0
13250 H 26.961441 39.238735 10.140111 H 0.0 **** 0.0
13251 H 28.021314 40.26449 10.481272 H 0.0 **** 0.0
13252 M 27.600585 39.778828 9.889592 M 0.0 **** 0.0
13253 O 21.351062 37.933898 28.611881 O 0.0 **** 0.0
13254 H 21.618338 37.811878 27.700891 H 0.0 **** 0.0
13255 H 20.396907 37.859739 28.594036 H 0.0 **** 0.0
13256 M 21.263133 37.908785 28.492978 M 0.0 **** 0.0
13257 O 20.909496 37.213132 13.822959 O 0.0 **** 0.0
13258 H 21.637976 36.59776 13.740122 H 0.0 **** 0.0
13259 H 20.17411 36.773304 13.396359 H 0.0 **** 0.0
13260 M 20.908612 37.078053 13.757744 M 0.0 **** 0.0
13261 O 12.239487 29.714304 10.04347 O 0.0 **** 0.0
13262 H 11.374014 30.01965 9.771533 H 0.0 **** 0.0
13263 H 12.643751 30.4767 10.457658 H 0.0 **** 0.0
13264 M 12.180446 29.850988 10.06168 M 0.0 **** 0.0
13265 O 6.728918 7.004488 45.151384 O 0.0 **** 0.0
13266 H 6.491976 7.146526 46.067851 H 0.0 **** 0.0
13267 H 5.902703 6.783991 44.721293 H 0.0 **** 0.0
13268 M 6.592821 6.994444 45.213646 M 0.0 **** 0.0
13269 O 43.316578 23.24097 11.973238 O 0.0 **** 0.0
13270 H 42.468312 22.867145 12.211835 H 0.0 **** 0.0
13271 H 43.888832 23.027314 12.710195 H 0.0 **** 0.0
13272 M 43.281245 23.165765 12.098121 M 0.0 **** 0.0
13273 O 40.633735 21.883054 16.882947 O 0.0 **** 0.0
13274 H 40.998962 21.858173 15.998516 H 0.0 **** 0.0
13275 H 39.820909 22.380505 16.79303 H 0.0 **** 0.0
13276 M 40.576437 21.943549 16.758218 M 0.0 **** 0.0
13277 O 26.846523 9.998147 8.632527 O 0.0 **** 0.0
13278 H 27.786739 9.848518 8.533363 H 0.0 **** 0.0
13279 H 26.438365 9.346456 8.062497 H 0.0 **** 0.0
13280 M 26.914633 9.895568 8.546862 M 0.0 **** 0.0
13281 O 0.608082 22.758376 36.094656 O 0.0 **** 0.0
13282 H 0.042844 21.986328 36.120686 H 0.0 **** 0.0
13283 H 0.013227 23.49599 36.229934 H 0.0 **** 0.0
13284 M 0.459576 22.753968 36.115306 M 0.0 **** 0.0
13285 O 43.98702 47.681512 19.110197 O 0.0 **** 0.0
13286 H 43.621848 47.67783 18.225401 H 0.0 **** 0.0
13287 H 44.350213 46.803182 19.223584 H 0.0 **** 0.0
13288 M 43.986767 47.568603 19.011447 M 0.0 **** 0.0
13289 O 2.04021 12.292502 19.953656 O 0.0 **** 0.0
13290 H 2.627016 13.048714 19.948099 H 0.0 **** 0.0
13291 H 2.625067 11.534821 19.944211 H 0.0 **** 0.0
13292 M 2.190197 12.292314 19.951735 M 0.0 **** 0.0
13293 O 6.543883 25.160501 14.821256 O 0.0 **** 0.0
13294 H 5.683603 24.798373 14.609099 H 0.0 **** 0.0
13295 H 6.481093 26.084881 14.580821 H 0.0 **** 0.0
13296 M 6.425719 25.232476 14.763318 M 0.0 **** 0.0
13297 O 19.593167 29.399316 32.351548 O 0.0 **** 0.0
13298 H 19.819203 30.327499 32.291448 H 0.0 **** 0.0
13299 H 20.275499 28.95318 31.849936 H 0.0 **** 0.0
13300 M 19.70945 29.461024 32.279642 M 0.0 **** 0.0
13301 O 33.263659 35.27792 2.795244 O 0.0 **** 0.0
13302 H 33.393116 34.330464 2.837637 H 0.0 **** 0.0
13303 H 33.908625 35.579885 2.155662 H 0.0 **** 0.0
13304 M 33.362795 35.195289 2.718796 M 0.0 **** 0.0
13305 O 2.901685 6.579842 41.451467 O 0.0 **** 0.0
13306 H 2.743211 5.636601 41.489013 H 0.0 **** 0.0
13307 H 2.086871 6.972737 41.764421 H 0.0 **** 0.0
13308 M 2.777092 6.509391 41.496335 M 0.0 **** 0.0
13309 O 19.258748 28.20133 24.496993 O 0.0 **** 0.0
13310 H 19.505427 29.100718 24.712585 H 0.0 **** 0.0
13311 H 20.081017 27.712448 24.530115 H 0.0 **** 0.0
13312 M 19.395587 28.25388 24.528832 M 0.0 **** 0.0
13313 O 31.06265 15.531549 34.515113 O 0.0 **** 0.0
13314 H 30.787091 15.030569 33.747444 H 0.0 **** 0.0
13315 H 30.448662 16.26473 34.556275 H 0.0 **** 0.0
13316 M 30.948777 15.561274 34.422111 M 0.0 **** 0.0
13317 O 32.50465 37.874679 41.392159 O 0.0 **** 0.0
13318 H 32.708519 38.519001 40.714284 H 0.0 **** 0.0
13319 H 31.576147 37.67923 41.26602 H 0.0 **** 0.0
13320 M 32.411888 37.93214 41.289235 M 0.0 **** 0.0
13321 O 31.439881 18.182671 0.29238 O 0.0 **** 0.0
13322 H 32.33788 18.317282 -0.010452 H 0.0 **** 0.0
13323 H 31.302426 18.866899 0.947488 H 0.0 **** 0.0
13324 M 31.53724 18.287492 0.337476 M 0.0 **** 0.0
13325 O 27.637004 24.607886 10.74357 O 0.0 **** 0.0
13326 H 28.326336 24.653467 10.081021 H 0.0 **** 0.0
13327 H 27.376017 23.687031 10.7554 H 0.0 **** 0.0
13328 M 27.691837 24.49584 10.66027 M 0.0 **** 0.0
13329 O 46.704594 40.413857 8.990914 O 0.0 **** 0.0
13330 H 46.460083 40.687046 9.875115 H 0.0 **** 0.0
13331 H 46.833753 39.467868 9.059107 H 0.0 **** 0.0
13332 M 46.689828 40.32773 9.112833 M 0.0 **** 0.0
13333 O 45.825839 26.729783 1.397537 O 0.0 **** 0.0
13334 H 45.593344 26.010384 0.810476 H 0.0 **** 0.0
13335 H 46.780584 26.779224 1.350144 H 0.0 **** 0.0
13336 M 45.918296 26.64402 1.316319 M 0.0 **** 0.0
13337 O 35.915702 40.608256 40.126001 O 0.0 **** 0.0
13338 H 35.016173 40.935412 40.132719 H 0.0 **** 0.0
13339 H 35.824477 39.655467 40.11602 H 0.0 **** 0.0
13340 M 35.788873 40.528167 40.125584 M 0.0 **** 0.0
13341 O 46.490753 26.891907 23.097744 O 0.0 **** 0.0
13342 H 46.573988 27.818782 22.873682 H 0.0 **** 0.0
13343 H 47.385034 26.553335 23.054626 H 0.0 **** 0.0
13344 M 46.615887 26.967217 23.063541 M 0.0 **** 0.0
13345 O 36.843836 26.760859 41.30767 O 0.0 **** 0.0
13346 H 37.450149 27.160845 41.931067 H 0.0 **** 0.0
13347 H 36.784601 27.392898 40.591258 H 0.0 **** 0.0
13348 M 36.913869 26.892971 41.295763 M 0.0 **** 0.0
13349 O 27.081251 34.9565 7.588539 O 0.0 **** 0.0
13350 H 27.866049 34.92807 7.041262 H 0.0 **** 0.0
13351 H 27.312994 34.449904 8.366925 H 0.0 **** 0.0
13352 M 27.211381 34.88801 7.618124 M 0.0 **** 0.0
13353 O 25.335345 17.915938 43.866065 O 0.0 **** 0.0
13354 H 24.564159 17.943298 43.299714 H 0.0 **** 0.0
13355 H 25.466922 18.82469 44.136411 H 0.0 **** 0.0
13356 M 25.253467 18.035772 43.828173 M 0.0 **** 0.0
13357 O 39.924588 32.081978 42.302134 O 0.0 **** 0.0
13358 H 39.658816 31.950238 41.392058 H 0.0 **** 0.0
13359 H 40.860813 32.275147 42.253179 H 0.0 **** 0.0
13360 M 40.010414 32.089842 42.179366 M 0.0 **** 0.0
13361 O 19.801609 11.824261 46.442972 O 0.0 **** 0.0
13362 H 19.184323 11.228181 46.018856 H 0.0 **** 0.0
13363 H 19.970785 12.500894 45.787398 H 0.0 **** 0.0
13364 M 19.744245 11.834573 46.304758 M 0.0 **** 0.0
13365 O 23.364137 38.917286 11.689836 O 0.0 **** 0.0
13366 H 22.465825 38.747455 11.406247 H 0.0 **** 0.0
13367 H 23.750753 38.048068 11.79575 H 0.0 **** 0.0
13368 M 23.298633 38.784274 11.667091 M 0.0 **** 0.0
13369 O 38.072385 23.68198 45.804905 O 0.0 **** 0.0
13370 H 38.703323 23.153582 46.293722 H 0.0 **** 0.0
13371 H 38.462746 24.555463 45.775314 H 0.0 **** 0.0
13372 M 38.203124 23.726156 45.863692 M 0.0 **** 0.0
13373 O 7.460931 43.697331 7.470213 O 0.0 **** 0.0
13374 H 8.189743 43.738717 8.089364 H 0.0 **** 0.0
13375 H 7.281883 44.61121 7.248864 H 0.0 **** 0.0
13376 M 7.531307 43.819617 7.521137 M 0.0 **** 0.0
13377 O 19.074019 23.506784 4.858549 O 0.0 **** 0.0
13378 H 19.368538 24.146161 5.507151 H 0.0 **** 0.0
13379 H 19.795323 23.45106 4.231776 H 0.0 **** 0.0
13380 M 19.204057 23.581499 4.861343 M 0.0 **** 0.0
13381 O 22.158659 6.779718 25.251255 O 0.0 **** 0.0
13382 H 22.527712 6.255735 25.96222 H 0.0 **** 0.0
13383 H 22.881315 6.888256 24.633019 H 0.0 **** 0.0
13384 M 22.298411 6.726536 25.263126 M 0.0 **** 0.0
13385 O 28.185432 35.026314 11.545723 O 0.0 **** 0.0
13386 H 28.535848 34.895744 10.664594 H 0.0 **** 0.0
13387 H 28.783555 35.654006 11.951285 H 0.0 **** 0.0
13388 M 28.306856 35.089952 11.484845 M 0.0 **** 0.0
13389 O 34.330754 40.617534 30.790687 O 0.0 **** 0.0
13390 H 34.229949 39.667199 30.844819 H 0.0 **** 0.0
13391 H 35.270923 40.765356 30.892959 H 0.0 **** 0.0
13392 M 34.438203 40.514803 30.810708 M 0.0 **** 0.0
13393 O 17.969693 22.033447 42.022256 O 0.0 **** 0.0
13394 H 18.344446 22.217294 42.883644 H 0.0 **** 0.0
13395 H 17.328856 21.340654 42.182238 H 0.0 **** 0.0
13396 M 17.935631 21.968295 42.153004 M 0.0 **** 0.0
13397 O 1.271092 15.822108 32.879679 O 0.0 **** 0.0
13398 H 2.202292 15.642774 32.749544 H 0.0 **** 0.0
13399 H 0.902067 14.98422 33.158952 H 0.0 **** 0.0
13400 M 1.343057 15.691891 32.89877 M 0.0 **** 0.0
13401 O 39.858924 35.767081 14.344593 O 0.0 **** 0.0
13402 H 39.201751 35.896234 13.660728 H 0.0 **** 0.0
13403 H 40.383724 36.567402 14.327334 H 0.0 **** 0.0
13404 M 39.841978 35.886065 14.25484 M 0.0 **** 0.0
13405 O 47.063969 36.88195 13.489295 O 0.0 **** 0.0
13406 H 46.741473 36.015832 13.240169 H 0.0 **** 0.0
13407 H 48.015973 36.785532 13.514221 H 0.0 **** 0.0
13408 M 47.144554 36.758733 13.460595 M 0.0 **** 0.0
13409 O 20.184962 31.776124 24.523698 O 0.0 **** 0.0
13410 H 19.600371 32.358483 25.008817 H 0.0 **** 0.0
13411 H 20.210685 32.143483 23.640174 H 0.0 **** 0.0
13412 M 20.11342 31.8977 24.472697 M 0.0 **** 0.0
13413 O 9.522107 4.684402 44.979304 O 0.0 **** 0.0
13414 H 10.095424 5.187307 44.400837 H 0.0 **** 0.0
13415 H 8.736899 5.22462 45.067853 H 0.0 **** 0.0
13416 M 9.494982 4.817935 44.916588 M 0.0 **** 0.0
13417 O 13.68416 13.341429 13.904707 O 0.0 **** 0.0
13418 H 13.777419 12.700405 13.199995 H 0.0 **** 0.0
13419 H 12.739745 13.406758 14.046276 H 0.0 **** 0.0
13420 M 13.575202 13.267733 13.832618 M 0.0 **** 0.0
13421 O 45.630854 30.066793 15.37066 O 0.0 **** 0.0
13422 H 46.467887 29.6969 15.089976 H 0.0 **** 0.0
13423 H 45.862706 30.897652 15.785564 H 0.0 **** 0.0
13424 M 45.767685 30.125802 15.387841 M 0.0 **** 0.0
13425 O 41.79363 17.518616 26.241194 O 0.0 **** 0.0
13426 H 41.315798 17.09742 26.955687 H 0.0 **** 0.0
13427 H 41.116342 17.953354 25.723012 H 0.0 **** 0.0
13428 M 41.64576 17.520349 26.266324 M 0.0 **** 0.0
13429 O 43.823892 29.200146 45.938789 O 0.0 **** 0.0
13430 H 43.318162 28.389558 45.880373 H 0.0 **** 0.0
13431 H 44.737161 28.913513 45.942059 H 0.0 **** 0.0
13432 M 43.876062 29.059688 45.93173 M 0.0 **** 0.0
13433 O 14.261964 45.735469 23.600869 O 0.0 **** 0.0
13434 H 14.10906 46.377046 22.907163 H 0.0 **** 0.0
13435 H 15.163588 45.894375 23.880247 H 0.0 **** 0.0
13436 M 14.35781 45.837941 23.54783 M 0.0 **** 0.0
13437 O 6.471286 45.566097 1.411941 O 0.0 **** 0.0
13438 H 6.637198 44.626682 1.490693 H 0.0 **** 0.0
13439 H 7.218513 45.978897 1.844927 H 0.0 **** 0.0
13440 M 6.588179 45.498684 1.47745 M 0.0 **** 0.0
13441 O 45.204075 24.947463 10.30698 O 0.0 **** 0.0
13442 H 45.561618 25.335279 11.105723 H 0.0 **** 0.0
13443 H 45.769815 24.195624 10.13118 H 0.0 **** 0.0
13444 M 45.322267 24.900864 10.386725 M 0.0 **** 0.0
13445 O 0.893092 10.252094 20.529583 O 0.0 **** 0.0
13446 H -0.002138 10.557048 20.677212 H 0.0 **** 0.0
13447 H 0.800579 9.318024 20.342015 H 0.0 **** 0.0
13448 M 0.766649 10.171559 20.52447 M 0.0 **** 0.0
13449 O 41.554946 26.867734 41.317987 O 0.0 **** 0.0
13450 H 41.376059 27.794629 41.476399 H 0.0 **** 0.0
13451 H 42.288491 26.866566 40.703056 H 0.0 **** 0.0
13452 M 41.625949 26.986239 41.259547 M 0.0 **** 0.0
13453 O 39.590481 19.159646 47.986555 O 0.0 **** 0.0
13454 H 39.090133 19.97564 47.980762 H 0.0 **** 0.0
13455 H 40.505775 19.439456 47.999654 H 0.0 **** 0.0
13456 M 39.643599 19.299923 47.987491 M 0.0 **** 0.0
13457 O 1.371601 42.890383 40.117286 O 0.0 **** 0.0
13458 H 1.373356 42.87778 39.160172 H 0.0 **** 0.0
13459 H 0.925092 42.081411 40.367131 H 0.0 **** 0.0
13460 M 1.314667 42.785211 40.026747 M 0.0 **** 0.0
13461 O 5.191502 36.100518 45.170372 O 0.0 **** 0.0
13462 H 5.644356 35.500549 44.577761 H 0.0 **** 0.0
13463 H 5.155433 35.632313 46.004466 H 0.0 **** 0.0
13464 M 5.244855 35.963778 45.201285 M 0.0 **** 0.0
13465 O 0.879415 12.851126 31.863973 O 0.0 **** 0.0
13466 H 0.001663 13.198907 31.706403 H 0.0 **** 0.0
13467 H 0.798798 11.911897 31.697908 H 0.0 **** 0.0
13468 M 0.756732 12.775414 31.822544 M 0.0 **** 0.0
13469 O 21.105119 45.625551 22.25948 O 0.0 **** 0.0
13470 H 21.565658 46.411043 22.554669 H 0.0 **** 0.0
13471 H 21.107555 45.045522 23.020919 H 0.0 **** 0.0
13472 M 21.164386 45.651853 22.394741 M 0.0 **** 0.0
13473 O 5.420533 19.089514 30.155181 O 0.0 **** 0.0
13474 H 5.082792 19.982388 30.225432 H 0.0 **** 0.0
13475 H 4.729427 18.606462 29.702122 H 0.0 **** 0.0
13476 M 5.288828 19.141976 30.106177 M 0.0 **** 0.0
13477 O 12.93885 28.151902 28.563763 O 0.0 **** 0.0
13478 H 12.752812 27.760102 29.417057 H 0.0 **** 0.0
13479 H 12.386762 28.933233 28.53294 H 0.0 **** 0.0
13480 M 12.844361 28.201767 28.66905 M 0.0 **** 0.0
13481 O 26.931919 40.551982 38.386971 O 0.0 **** 0.0
13482 H 27.629169 41.146966 38.66277 H 0.0 **** 0.0
13483 H 26.126223 41.054883 38.50603 H 0.0 **** 0.0
13484 M 26.918037 40.692525 38.437518 M 0.0 **** 0.0
13485 O 15.788613 31.000576 5.141856 O 0.0 **** 0.0
13486 H 16.152591 30.115286 5.14526 H 0.0 **** 0.0
13487 H 14.842433 30.8708 5.077595 H 0.0 **** 0.0
13488 M 15.714084 30.870635 5.134066 M 0.0 **** 0.0
13489 O 17.482584 5.376903 1.883542 O 0.0 **** 0.0
13490 H 17.415136 4.422153 1.872116 H 0.0 **** 0.0
13491 H 16.746293 5.663055 2.424117 H 0.0 **** 0.0
13492 M 17.379696 5.291314 1.95128 M 0.0 **** 0.0
13493 O 12.836391 34.635002 32.307864 O 0.0 **** 0.0
13494 H 12.280033 35.028345 31.635572 H 0.0 **** 0.0
13495 H 12.394558 33.817319 32.53679 H 0.0 **** 0.0
13496 M 12.70861 34.580681 32.251107 M 0.0 **** 0.0
13497 O 4.821462 14.3356 26.968168 O 0.0 **** 0.0
13498 H 4.325378 14.040197 27.731625 H 0.0 **** 0.0
13499 H 4.25715 14.987809 26.552952 H 0.0 **** 0.0
13500 M 4.685718 14.381276 27.012747 M 0.0 **** 0.0
13501 O 16.693887 32.859809 2.090279 O 0.0 **** 0.0
13502 H 16.287506 32.189349 1.541129 H 0.0 **** 0.0
13503 H 16.049102 33.031039 2.776691 H 0.0 **** 0.0
13504 M 16.559325 32.795901 2.10785 M 0.0 **** 0.0
13505 O 35.36468 10.019949 46.020414 O 0.0 **** 0.0
13506 H 34.545536 9.527192 45.971181 H 0.0 **** 0.0
13507 H 36.027382 9.363135 46.234074 H 0.0 **** 0.0
13508 M 35.344653 9.872789 46.041463 M 0.0 **** 0.0
13509 O 2.353928 22.226961 29.410633 O 0.0 **** 0.0
13510 H 3.277581 22.121903 29.182474 H 0.0 **** 0.0
13511 H 2.031548 21.332853 29.524081 H 0.0 **** 0.0
13512 M 2.430899 22.099055 29.395948 M 0.0 **** 0.0
13513 O 27.968156 19.028923 12.657858 O 0.0 **** 0.0
13514 H 27.459548 19.827291 12.799828 H 0.0 **** 0.0
13515 H 28.780008 19.171874 13.144367 H 0.0 **** 0.0
13516 M 28.006975 19.149424 12.738311 M 0.0 **** 0.0
13517 O 34.53217 40.83098 44.19974 O 0.0 **** 0.0
13518 H 34.895043 40.042185 43.796809 H 0.0 **** 0.0
13519 H 35.227747 41.48355 44.118784 H 0.0 **** 0.0
13520 M 34.667665 40.813541 44.137797 M 0.0 **** 0.0
13521 O 0.403012 3.201857 21.267461 O 0.0 **** 0.0
13522 H 1.141185 3.276034 21.872297 H 0.0 **** 0.0
13523 H 0.185886 4.10636 21.041721 H 0.0 **** 0.0
13524 M 0.469712 3.32714 21.31599 M 0.0 **** 0.0
13525 O 17.051116 1.117676 12.696532 O 0.0 **** 0.0
13526 H 16.827898 2.016454 12.938607 H 0.0 **** 0.0
13527 H 16.21431 0.65296 12.701359 H 0.0 **** 0.0
13528 M 16.915419 1.173241 12.728139 M 0.0 **** 0.0
13529 O 31.849417 20.823361 46.174297 O 0.0 **** 0.0
13530 H 31.220643 21.352555 46.665036 H 0.0 **** 0.0
13531 H 31.314604 20.332092 45.550712 H 0.0 **** 0.0
13532 M 31.700463 20.828216 46.157291 M 0.0 **** 0.0
13533 O 23.798172 47.940651 2.393984 O 0.0 **** 0.0
13534 H 23.106882 47.280287 2.441586 H 0.0 **** 0.0
13535 H 24.607411 47.435645 2.314426 H 0.0 **** 0.0
13536 M 23.813271 47.791469 2.389893 M 0.0 **** 0.0
13537 O 23.887723 1.139894 21.679596 O 0.0 **** 0.0
13538 H 23.777388 2.081721 21.81004 H 0.0 **** 0.0
13539 H 22.996715 0.806059 21.575245 H 0.0 **** 0.0
13540 M 23.759538 1.217724 21.682936 M 0.0 **** 0.0
13541 O 36.116661 43.842525 8.43492 O 0.0 **** 0.0
13542 H 35.479211 43.492496 9.057307 H 0.0 **** 0.0
13543 H 35.682313 43.777541 7.584421 H 0.0 **** 0.0
13544 M 35.979458 43.789398 8.405718 M 0.0 **** 0.0
13545 O 22.448711 17.422977 43.583732 O 0.0 **** 0.0
13546 H 22.815842 16.616195 43.22242 H 0.0 **** 0.0
13547 H 21.622009 17.541024 43.11591 H 0.0 **** 0.0
13548 M 22.38988 17.33481 43.477592 M 0.0 **** 0.0
13549 O 45.088956 18.449961 42.638284 O 0.0 **** 0.0
13550 H 44.826272 17.531959 42.705353 H 0.0 **** 0.0
13551 H 46.03507 18.440057 42.783194 H 0.0 **** 0.0
13552 M 45.176443 18.331178 42.66542 M 0.0 **** 0.0
13553 O 27.75559 27.167455 33.740768 O 0.0 **** 0.0
13554 H 27.591843 27.655739 32.933925 H 0.0 **** 0.0
13555 H 27.655545 26.249115 33.490024 H 0.0 **** 0.0
13556 M 27.721822 27.112402 33.605383 M 0.0 **** 0.0
13557 O 47.211201 13.165827 6.958196 O 0.0 **** 0.0
13558 H 47.660434 14.009975 7.001022 H 0.0 **** 0.0
13559 H 47.880231 12.52539 7.199998 H 0.0 **** 0.0
13560 M 47.354353 13.191905 6.994632 M 0.0 **** 0.0
13561 O 40.557213 33.3765 32.016339 O 0.0 **** 0.0
13562 H 40.923054 33.826101 32.778079 H 0.0 **** 0.0
13563 H 40.670824 32.445898 32.209473 H 0.0 **** 0.0
13564 M 40.618589 33.314926 32.138575 M 0.0 **** 0.0
13565 O 43.393313 11.416793 25.77626 O 0.0 **** 0.0
13566 H 44.25117 11.683294 25.445674 H 0.0 **** 0.0
13567 H 42.809474 12.136308 25.536138 H 0.0 **** 0.0
13568 M 43.428391 11.543015 25.703202 M 0.0 **** 0.0
13569 O 16.25128 23.466354 12.783298 O 0.0 **** 0.0
13570 H 15.361533 23.316757 13.102983 H 0.0 **** 0.0
13571 H 16.172136 24.218302 12.196324 H 0.0 **** 0.0
13572 M 16.12725 23.543463 12.749082 M 0.0 **** 0.0
13573 O 2.543681 20.267022 11.990841 O 0.0 **** 0.0
13574 H 3.27654 20.35917 12.599656 H 0.0 **** 0.0
13575 H 2.527988 19.334961 11.773485 H 0.0 **** 0.0
13576 M 2.635487 20.159503 12.040953 M 0.0 **** 0.0
13577 O 35.703443 13.858759 20.152998 O 0.0 **** 0.0
13578 H 35.96184 14.276299 20.974655 H 0.0 **** 0.0
13579 H 36.279658 14.24728 19.494776 H 0.0 **** 0.0
13580 M 35.810284 13.961945 20.17392 M 0.0 **** 0.0
13581 O 5.716279 18.425102 10.810347 O 0.0 **** 0.0
13582 H 4.960017 18.228937 10.257341 H 0.0 **** 0.0
13583 H 5.854938 17.626451 11.319423 H 0.0 **** 0.0
13584 M 5.637218 18.297753 10.804723 M 0.0 **** 0.0
13585 O 15.336719 39.560457 28.540461 O 0.0 **** 0.0
13586 H 14.510204 40.043258 28.538152 H 0.0 **** 0.0
13587 H 16.009374 40.235763 28.452565 H 0.0 **** 0.0
13588 M 15.317023 39.70871 28.528914 M 0.0 **** 0.0
13589 O 5.336677 16.519783 2.772799 O 0.0 **** 0.0
13590 H 4.846051 15.737018 2.522212 H 0.0 **** 0.0
13591 H 5.958176 16.652833 2.057071 H 0.0 **** 0.0
13592 M 5.35343 16.436611 2.649098 M 0.0 **** 0.0
13593 O 30.582037 6.86297 13.596489 O 0.0 **** 0.0
13594 H 30.003987 6.10618 13.693218 H 0.0 **** 0.0
13595 H 31.460388 6.515373 13.751102 H 0.0 **** 0.0
13596 M 30.62048 6.721594 13.628664 M 0.0 **** 0.0
13597 O 43.70466 22.79996 47.16959 O 0.0 **** 0.0
13598 H 44.069136 22.03313 47.611583 H 0.0 **** 0.0
13599 H 42.758736 22.65362 47.175994 H 0.0 **** 0.0
13600 M 43.630227 22.683063 47.22699 M 0.0 **** 0.0
13601 O 40.949084 1.960077 22.938577 O 0.0 **** 0.0
13602 H 40.113035 2.087888 22.490342 H 0.0 **** 0.0
13603 H 41.319457 1.17447 22.53624 H 0.0 **** 0.0
13604 M 40.889472 1.875871 22.829693 M 0.0 **** 0.0
13605 O 17.549157 24.613395 45.294235 O 0.0 **** 0.0
13606 H 16.821262 23.993312 45.337765 H 0.0 **** 0.0
13607 H 17.142344 25.444118 45.048 H 0.0 **** 0.0
13608 M 17.4039 24.64036 45.268286 M 0.0 **** 0.0
13609 O 16.536538 7.595114 44.081436 O 0.0 **** 0.0
13610 H 16.732713 8.4788 43.770237 H 0.0 **** 0.0
13611 H 17.393713 7.183395 44.190832 H 0.0 **** 0.0
13612 M 16.67138 7.655532 44.055603 M 0.0 **** 0.0
13613 O 13.31558 2.087282 35.097232 O 0.0 **** 0.0
13614 H 12.577499 1.507078 34.910606 H 0.0 **** 0.0
13615 H 12.91225 2.93213 35.296693 H 0.0 **** 0.0
13616 M 13.169465 2.12116 35.098875 M 0.0 **** 0.0
13617 O 20.071266 31.046274 41.479578 O 0.0 **** 0.0
13618 H 19.535386 31.259474 42.24352 H 0.0 **** 0.0
13619 H 20.014347 30.093701 41.404793 H 0.0 **** 0.0
13620 M 19.995381 30.951625 41.567799 M 0.0 **** 0.0
13621 O 2.854697 8.688116 19.212344 O 0.0 **** 0.0
13622 H 3.684415 8.544736 19.667579 H 0.0 **** 0.0
13623 H 3.000669 9.476914 18.690119 H 0.0 **** 0.0
13624 M 2.979598 8.770738 19.203769 M 0.0 **** 0.0
13625 O 12.953003 18.210306 42.318361 O 0.0 **** 0.0
13626 H 13.790932 18.361024 42.755839 H 0.0 **** 0.0
13627 H 12.357732 18.846912 42.714107 H 0.0 **** 0.0
13628 M 12.984066 18.311093 42.425024 M 0.0 **** 0.0
13629 O 42.169162 9.072165 0.217486 O 0.0 **** 0.0
13630 H 41.288033 9.376711 0.000476 H 0.0 **** 0.0
13631 H 42.053972 8.151101 0.451154 H 0.0 **** 0.0
13632 M 42.04162 8.993243 0.219619 M 0.0 **** 0.0
13633 O 45.779266 40.294122 29.482531 O 0.0 **** 0.0
13634 H 45.488538 39.391158 29.610446 H 0.0 **** 0.0
13635 H 44.969323 40.798433 29.405783 H 0.0 **** 0.0
13636 M 45.638367 40.243089 29.489081 M 0.0 **** 0.0
13637 O 7.409323 46.983833 11.346798 O 0.0 **** 0.0
13638 H 7.462364 46.269551 11.981792 H 0.0 **** 0.0
13639 H 6.737417 46.703207 10.725492 H 0.0 **** 0.0
13640 M 7.330101 46.856473 11.34855 M 0.0 **** 0.0
13641 O 2.536902 46.861876 38.903387 O 0.0 **** 0.0
13642 H 2.639109 47.556365 39.55413 H 0.0 **** 0.0
13643 H 1.5902 46.774718 38.792086 H 0.0 **** 0.0
13644 M 2.428796 46.939622 38.972442 M 0.0 **** 0.0
13645 O 2.283122 12.205284 39.885014 O 0.0 **** 0.0
13646 H 1.822815 11.386268 39.701823 H 0.0 **** 0.0
13647 H 1.586354 12.840118 40.051535 H 0.0 **** 0.0
13648 M 2.135002 12.181706 39.88288 M 0.0 **** 0.0
13649 O 26.431714 33.030239 47.652568 O 0.0 **** 0.0
13650 H 27.258127 32.551192 47.714092 H 0.0 **** 0.0
13651 H 25.776902 32.424794 48.000255 H 0.0 **** 0.0
13652 M 26.453681 32.89141 47.704952 M 0.0 **** 0.0
13653 O 26.269024 41.574837 36.373836 O 0.0 **** 0.0
13654 H 25.943752 42.47485 36.353766 H 0.0 **** 0.0
13655 H 25.479108 41.034501 36.39111 H 0.0 **** 0.0
13656 M 26.126266 41.62088 36.373478 M 0.0 **** 0.0
13657 O 44.471382 36.449967 7.786845 O 0.0 **** 0.0
13658 H 43.995277 35.88193 7.181134 H 0.0 **** 0.0
13659 H 44.065889 37.310189 7.678108 H 0.0 **** 0.0
13660 M 44.358527 36.487371 7.695387 M 0.0 **** 0.0
13661 O 22.736069 17.568989 14.375124 O 0.0 **** 0.0
13662 H 23.275431 18.270757 14.739595 H 0.0 **** 0.0
13663 H 21.838113 17.891125 14.453431 H 0.0 **** 0.0
13664 M 22.690164 17.700062 14.431805 M 0.0 **** 0.0
13665 O 22.738716 28.555024 5.757783 O 0.0 **** 0.0
13666 H 22.232092 29.265768 5.364842 H 0.0 **** 0.0
13667 H 23.043912 28.037427 5.012681 H 0.0 **** 0.0
13668 M 22.712931 28.579749 5.6121 M 0.0 **** 0.0
13669 O 33.307282 35.255756 42.920585 O 0.0 **** 0.0
13670 H 33.237431 36.194524 42.747195 H 0.0 **** 0.0
13671 H 32.415805 34.985345 43.14053 H 0.0 **** 0.0
13672 M 33.18422 35.341314 42.926545 M 0.0 **** 0.0
13673 O 15.170565 19.862404 0.386866 O 0.0 **** 0.0
13674 H 15.572133 20.729053 0.324484 H 0.0 **** 0.0
13675 H 14.22876 20.033251 0.380205 H 0.0 **** 0.0
13676 M 15.101408 19.995216 0.378028 M 0.0 **** 0.0
13677 O 12.579719 22.536336 42.368578 O 0.0 **** 0.0
13678 H 13.419671 22.60811 41.915193 H 0.0 **** 0.0
13679 H 12.325647 23.441616 42.547863 H 0.0 **** 0.0
13680 M 12.654719 22.661411 42.33349 M 0.0 **** 0.0
13681 O 39.795458 9.21621 30.913032 O 0.0 **** 0.0
13682 H 39.982536 8.322738 31.201021 H 0.0 **** 0.0
13683 H 40.399235 9.762088 31.416718 H 0.0 **** 0.0
13684 M 39.896697 9.171714 31.014376 M 0.0 **** 0.0
13685 O 40.532727 36.740112 41.461895 O 0.0 **** 0.0
13686 H 39.821351 36.87133 42.088756 H 0.0 **** 0.0
13687 H 40.393551 35.855963 41.122573 H 0.0 **** 0.0
13688 M 40.423846 36.643727 41.498703 M 0.0 **** 0.0
13689 O 39.874528 37.798243 39.340792 O 0.0 **** 0.0
13690 H 40.146115 37.711062 38.427081 H 0.0 **** 0.0
13691 H 40.611289 38.233539 39.769662 H 0.0 **** 0.0
13692 M 40.003609 37.842806 39.278726 M 0.0 **** 0.0
13693 O 18.30541 14.030923 20.925277 O 0.0 **** 0.0
13694 H 17.739303 14.615825 20.421648 H 0.0 **** 0.0
13695 H 19.058634 14.571721 21.162806 H 0.0 **** 0.0
13696 M 18.329363 14.175027 20.891213 M 0.0 **** 0.0
13697 O 18.187813 13.415519 36.155394 O 0.0 **** 0.0
13698 H 18.742527 12.900362 35.569619 H 0.0 **** 0.0
13699 H 18.484626 14.317579 36.035317 H 0.0 **** 0.0
13700 M 18.296819 13.465048 36.065036 M 0.0 **** 0.0
13701 O 5.271166 43.91022 3.061174 O 0.0 **** 0.0
13702 H 5.459795 42.994727 2.85497 H 0.0 **** 0.0
13703 H 4.315424 43.962358 3.069447 H 0.0 **** 0.0
13704 M 5.172966 43.7997 3.035837 M 0.0 **** 0.0
13705 O 26.059571 43.721228 33.473646 O 0.0 **** 0.0
13706 H 26.215793 44.585858 33.093861 H 0.0 **** 0.0
13707 H 26.931898 43.395037 33.694719 H 0.0 **** 0.0
13708 M 26.191238 43.790155 33.453329 M 0.0 **** 0.0
13709 O 47.998888 17.151735 23.01111 O 0.0 **** 0.0
13710 H 47.0909 17.42264 22.875475 H 0.0 **** 0.0
13711 H 47.953437 16.503158 23.713614 H 0.0 **** 0.0
13712 M 47.876836 17.103388 23.083677 M 0.0 **** 0.0
13713 O 13.546127 32.826752 44.942308 O 0.0 **** 0.0
13714 H 14.404681 33.222133 45.093261 H 0.0 **** 0.0
13715 H 12.928515 33.427862 45.358784 H 0.0 **** 0.0
13716 M 13.576971 32.954316 45.014946 M 0.0 **** 0.0
13717 O 6.378724 36.482437 42.635949 O 0.0 **** 0.0
13718 H 6.770188 35.609235 42.658356 H 0.0 **** 0.0
13719 H 5.438993 36.322015 42.549925 H 0.0 **** 0.0
13720 M 6.308539 36.35012 42.627805 M 0.0 **** 0.0
13721 O 14.493123 16.842219 18.975159 O 0.0 **** 0.0
13722 H 14.950924 16.78642 19.813928 H 0.0 **** 0.0
13723 H 15.188902 16.803412 18.318946 H 0.0 **** 0.0
13724 M 14.640796 16.830108 18.998528 M 0.0 **** 0.0
13725 O 30.622997 25.681607 33.164224 O 0.0 **** 0.0
13726 H 31.083439 24.842432 33.161747 H 0.0 **** 0.0
13727 H 29.695251 25.446276 33.175902 H 0.0 **** 0.0
13728 M 30.563176 25.544057 33.165402 M 0.0 **** 0.0
13729 O 1.653304 15.941717 5.900642 O 0.0 **** 0.0
13730 H 2.591239 15.975707 6.088663 H 0.0 **** 0.0
13731 H 1.253073 16.488738 6.576521 H 0.0 **** 0.0
13732 M 1.722137 16.016094 6.011232 M 0.0 **** 0.0
13733 O 19.012584 35.862069 15.933199 O 0.0 **** 0.0
13734 H 19.860013 36.120412 15.570776 H 0.0 **** 0.0
13735 H 18.764531 35.084654 15.432874 H 0.0 **** 0.0
13736 M 19.089312 35.795621 15.822757 M 0.0 **** 0.0
13737 O 8.741863 12.28832 34.919352 O 0.0 **** 0.0
13738 H 9.192191 13.132026 34.959263 H 0.0 **** 0.0
13739 H 7.813621 12.514306 34.85996 H 0.0 **** 0.0
13740 M 8.680684 12.425254 34.916858 M 0.0 **** 0.0
13741 O 2.602685 0.839759 14.502968 O 0.0 **** 0.0
13742 H 2.170025 -0.006251 14.387638 H 0.0 **** 0.0
13743 H 2.018108 1.331636 15.079644 H 0.0 **** 0.0
13744 M 2.472466 0.794426 14.562026 M 0.0 **** 0.0
13745 O 34.837482 43.602689 44.547573 O 0.0 **** 0.0
13746 H 35.207651 43.733991 43.674668 H 0.0 **** 0.0
13747 H 35.148203 44.352311 45.055262 H 0.0 **** 0.0
13748 M 34.924644 43.715458 44.500821 M 0.0 **** 0.0
13749 O 3.297686 18.112667 28.108015 O 0.0 **** 0.0
13750 H 2.866021 17.497197 27.515485 H 0.0 **** 0.0
13751 H 3.036267 18.976429 27.788948 H 0.0 **** 0.0
13752 M 3.208962 18.144451 27.991319 M 0.0 **** 0.0
13753 O 26.301443 39.353827 46.044502 O 0.0 **** 0.0
13754 H 26.360574 38.76222 45.294347 H 0.0 **** 0.0
13755 H 26.93298 40.047326 45.853585 H 0.0 **** 0.0
13756 M 26.389857 39.366871 45.924033 M 0.0 **** 0.0
13757 O 47.709766 13.610398 21.505985 O 0.0 **** 0.0
13758 H 48.015238 12.704368 21.460993 H 0.0 **** 0.0
13759 H 47.886449 13.878735 22.407655 H 0.0 **** 0.0
13760 M 47.771488 13.528766 21.615651 M 0.0 **** 0.0
13761 O 0.893827 46.820922 1.127981 O 0.0 **** 0.0
13762 H -8e-06 47.162387 1.101727 H 0.0 **** 0.0
13763 H 1.447175 47.600425 1.17708 H 0.0 **** 0.0
13764 M 0.85024 46.96442 1.130905 M 0.0 **** 0.0
13765 O 41.117205 36.305422 3.131936 O 0.0 **** 0.0
13766 H 40.453879 36.871583 2.737362 H 0.0 **** 0.0
13767 H 41.704517 36.906842 3.589743 H 0.0 **** 0.0
13768 M 41.107474 36.454887 3.140031 M 0.0 **** 0.0
13769 O 29.511492 25.134997 39.795509 O 0.0 **** 0.0
13770 H 30.39521 25.017781 40.144122 H 0.0 **** 0.0
13771 H 29.640734 25.58307 38.959594 H 0.0 **** 0.0
13772 M 29.641163 25.177351 39.733129 M 0.0 **** 0.0
13773 O 13.260794 4.387284 25.306945 O 0.0 **** 0.0
13774 H 12.846959 5.031958 24.733042 H 0.0 **** 0.0
13775 H 12.855274 3.554814 25.064507 H 0.0 **** 0.0
13776 M 13.155906 4.363244 25.202443 M 0.0 **** 0.0
13777 O 19.795614 1.131709 35.399837 O 0.0 **** 0.0
13778 H 20.1252 0.233167 35.384904 H 0.0 **** 0.0
13779 H 20.461613 1.63936 34.936195 H 0.0 **** 0.0
13780 M 19.923061 1.08167 35.338573 M 0.0 **** 0.0
13781 O 27.047649 32.706207 37.605122 O 0.0 **** 0.0
13782 H 27.580473 33.033589 36.880451 H 0.0 **** 0.0
13783 H 27.654439 32.651071 38.34336 H 0.0 **** 0.0
13784 M 27.193534 32.741058 37.606859 M 0.0 **** 0.0
13785 O 30.123916 40.083594 45.899484 O 0.0 **** 0.0
13786 H 30.70543 40.843771 45.913696 H 0.0 **** 0.0
13787 H 30.676596 39.364334 45.593809 H 0.0 **** 0.0
13788 M 30.269107 40.088832 45.862173 M 0.0 **** 0.0
13789 O 35.738279 20.761267 6.139223 O 0.0 **** 0.0
13790 H 36.277669 19.989524 6.311558 H 0.0 **** 0.0
13791 H 36.318446 21.359171 5.667899 H 0.0 **** 0.0
13792 M 35.881596 20.739013 6.100949 M 0.0 **** 0.0
13793 O 1.974872 0.587699 40.773281 O 0.0 **** 0.0
13794 H 2.352516 1.466107 40.72841 H 0.0 **** 0.0
13795 H 2.72957 -5.2e-05 40.738521 H 0.0 **** 0.0
13796 M 2.119826 0.624907 40.763087 M 0.0 **** 0.0
13797 O 9.181732 8.553842 46.068369 O 0.0 **** 0.0
13798 H 8.380919 8.204318 46.459212 H 0.0 **** 0.0
13799 H 9.635874 7.785011 45.723575 H 0.0 **** 0.0
13800 M 9.137354 8.410679 46.074264 M 0.0 **** 0.0
13801 O 13.369437 38.793443 35.833993 O 0.0 **** 0.0
13802 H 13.45228 37.864156 36.047984 H 0.0 **** 0.0
13803 H 12.518336 38.86527 35.40191 H 0.0 **** 0.0
13804 M 13.27109 38.683677 35.806075 M 0.0 **** 0.0
13805 O 41.006079 15.082461 26.130933 O 0.0 **** 0.0
13806 H 41.494633 14.359168 26.52386 H 0.0 **** 0.0
13807 H 41.599158 15.442388 25.471433 H 0.0 **** 0.0
13808 M 41.144542 15.035946 26.096808 M 0.0 **** 0.0
13809 O 14.972238 22.822076 4.160613 O 0.0 **** 0.0
13810 H 14.684578 21.909143 4.166258 H 0.0 **** 0.0
13811 H 14.258865 23.295838 3.732971 H 0.0 **** 0.0
13812 M 14.844093 22.765857 4.106592 M 0.0 **** 0.0
13813 O 8.076173 9.864384 23.654921 O 0.0 **** 0.0
13814 H 8.007147 10.265351 22.788498 H 0.0 **** 0.0
13815 H 7.181241 9.871083 23.994452 H 0.0 **** 0.0
13816 M 7.952774 9.916571 23.587472 M 0.0 **** 0.0
13817 O 20.887813 29.383484 20.352641 O 0.0 **** 0.0
13818 H 21.067694 29.040508 19.477291 H 0.0 **** 0.0
13819 H 21.496889 30.11496 20.453629 H 0.0 **** 0.0
13820 M 20.98881 29.433217 20.253513 M 0.0 **** 0.0
13821 O 5.115164 24.131047 16.711817 O 0.0 **** 0.0
13822 H 4.181465 23.973813 16.571415 H 0.0 **** 0.0
13823 H 5.549419 23.388988 16.291103 H 0.0 **** 0.0
13824 M 5.051229 24.015926 16.639987 M 0.0 **** 0.0
13825 O 32.03421 32.347044 17.617748 O 0.0 **** 0.0
13826 H 31.385621 31.663356 17.450025 H 0.0 **** 0.0
13827 H 31.518891 33.102606 17.900239 H 0.0 **** 0.0
13828 M 31.885216 32.356245 17.63244 M 0.0 **** 0.0
13829 O 29.340031 20.721672 -0.00064 O 0.0 **** 0.0
13830 H 30.216877 21.105537 0.003575 H 0.0 **** 0.0
13831 H 29.427896 19.916922 0.510129 H 0.0 **** 0.0
13832 M 29.463526 20.667794 0.065285 M 0.0 **** 0.0
13833 O 2.966383 19.737808 8.973516 O 0.0 **** 0.0
13834 H 3.868717 19.781347 8.657087 H 0.0 **** 0.0
13835 H 2.982053 19.061967 9.651176 H 0.0 **** 0.0
13836 M 3.083899 19.656865 9.019758 M 0.0 **** 0.0
13837 O 44.752481 15.080855 31.299959 O 0.0 **** 0.0
13838 H 45.144013 14.209737 31.236045 H 0.0 **** 0.0
13839 H 43.81992 14.915262 31.438297 H 0.0 **** 0.0
13840 M 44.683223 14.948143 31.309486 M 0.0 **** 0.0
13841 O 31.22016 37.610011 43.943796 O 0.0 **** 0.0
13842 H 31.047921 36.914285 43.309345 H 0.0 **** 0.0
13843 H 32.172644 37.618183 44.03833 H 0.0 **** 0.0
13844 M 31.320041 37.521995 43.87468 M 0.0 **** 0.0
13845 O 10.962214 20.426499 2.154881 O 0.0 **** 0.0
13846 H 10.657964 21.255925 1.786489 H 0.0 **** 0.0
13847 H 11.881428 20.370761 1.893792 H 0.0 **** 0.0
13848 M 11.040937 20.525541 2.0743 M 0.0 **** 0.0
13849 O 21.414303 10.201235 21.009975 O 0.0 **** 0.0
13850 H 21.875462 11.035819 21.093825 H 0.0 **** 0.0
13851 H 20.817676 10.329746 20.272581 H 0.0 **** 0.0
13852 M 21.396961 10.324523 20.926313 M 0.0 **** 0.0
13853 O 8.63392 35.66256 0.653261 O 0.0 **** 0.0
13854 H 8.138162 35.033239 0.129422 H 0.0 **** 0.0
13855 H 9.029827 36.250877 0.010322 H 0.0 **** 0.0
13856 M 8.621138 35.657311 0.503899 M 0.0 **** 0.0
13857 O 41.790725 35.675073 38.907223 O 0.0 **** 0.0
13858 H 42.013047 36.592569 38.749098 H 0.0 **** 0.0
13859 H 40.836021 35.667875 38.975905 H 0.0 **** 0.0
13860 M 41.696971 35.791603 38.895773 M 0.0 **** 0.0
13861 O 23.804325 6.925343 9.155011 O 0.0 **** 0.0
13862 H 24.754358 6.957556 9.267388 H 0.0 **** 0.0
13863 H 23.538175 6.116726 9.592654 H 0.0 **** 0.0
13864 M 23.891871 6.825953 9.22542 M 0.0 **** 0.0
13865 O 38.271614 19.526042 24.412058 O 0.0 **** 0.0
13866 H 38.474065 19.748562 25.320753 H 0.0 **** 0.0
13867 H 38.464775 20.324471 23.920705 H 0.0 **** 0.0
13868 M 38.322257 19.656736 24.465483 M 0.0 **** 0.0
13869 O 5.065832 32.861513 13.063733 O 0.0 **** 0.0
13870 H 4.949801 32.692118 13.998651 H 0.0 **** 0.0
13871 H 4.501468 32.220297 12.631802 H 0.0 **** 0.0
13872 M 4.978733 32.757745 13.128122 M 0.0 **** 0.0
13873 O 22.46546 9.339943 13.984627 O 0.0 **** 0.0
13874 H 22.13302 8.949472 14.792862 H 0.0 **** 0.0
13875 H 22.281063 10.27474 14.076175 H 0.0 **** 0.0
13876 M 22.399298 9.409623 14.09981 M 0.0 **** 0.0
13877 O 44.964779 44.370138 28.459699 O 0.0 **** 0.0
13878 H 44.768707 44.554184 27.541053 H 0.0 **** 0.0
13879 H 44.397174 43.632481 28.683121 H 0.0 **** 0.0
13880 M 44.867019 44.299269 28.370702 M 0.0 **** 0.0
13881 O 30.603391 4.958928 25.723389 O 0.0 **** 0.0
13882 H 31.247751 4.989668 26.430555 H 0.0 **** 0.0
13883 H 31.121497 4.806621 24.933075 H 0.0 **** 0.0
13884 M 30.752201 4.943366 25.712745 M 0.0 **** 0.0
13885 O 6.524944 3.739259 16.420021 O 0.0 **** 0.0
13886 H 6.244226 4.440345 17.008157 H 0.0 **** 0.0
13887 H 6.099302 2.953479 16.762962 H 0.0 **** 0.0
13888 M 6.434521 3.728417 16.539211 M 0.0 **** 0.0
13889 O 18.17564 45.010463 32.849818 O 0.0 **** 0.0
13890 H 19.105551 44.813207 32.737635 H 0.0 **** 0.0
13891 H 17.749166 44.153733 32.868811 H 0.0 **** 0.0
13892 M 18.240086 44.87554 32.837888 M 0.0 **** 0.0
13893 O 24.354822 11.243363 1.295941 O 0.0 **** 0.0
13894 H 25.133304 10.852934 0.898752 H 0.0 **** 0.0
13895 H 24.547286 12.180377 1.330461 H 0.0 **** 0.0
13896 M 24.479115 11.313333 1.249515 M 0.0 **** 0.0
13897 O 47.996065 13.798233 25.479691 O 0.0 **** 0.0
13898 H 48.004415 13.509152 24.567226 H 0.0 **** 0.0
13899 H 47.332947 14.48799 25.506854 H 0.0 **** 0.0
13900 M 47.912246 13.849524 25.366361 M 0.0 **** 0.0
13901 O 36.187792 15.352461 26.696291 O 0.0 **** 0.0
13902 H 35.831167 15.912666 26.00693 H 0.0 **** 0.0
13903 H 36.753136 14.733578 26.234125 H 0.0 **** 0.0
13904 M 36.21451 15.34495 26.548881 M 0.0 **** 0.0
13905 O 24.713798 26.823324 6.915878 O 0.0 **** 0.0
13906 H 24.847548 27.336495 7.712744 H 0.0 **** 0.0
13907 H 24.799887 27.457928 6.204475 H 0.0 **** 0.0
13908 M 24.74194 26.970253 6.926818 M 0.0 **** 0.0
13909 O 9.744565 2.869042 5.484047 O 0.0 **** 0.0
13910 H 10.371301 3.534838 5.767146 H 0.0 **** 0.0
13911 H 10.28748 2.132981 5.201758 H 0.0 **** 0.0
13912 M 9.894295 2.860047 5.484151 M 0.0 **** 0.0
13913 O 13.303366 30.539598 19.801379 O 0.0 **** 0.0
13914 H 12.520781 30.006909 19.942912 H 0.0 **** 0.0
13915 H 13.721514 30.584984 20.661217 H 0.0 **** 0.0
13916 M 13.256714 30.477217 19.929567 M 0.0 **** 0.0
13917 O 32.867646 20.065493 24.840819 O 0.0 **** 0.0
13918 H 33.387425 20.741528 24.406036 H 0.0 **** 0.0
13919 H 32.898548 19.317953 24.243778 H 0.0 **** 0.0
13920 M 32.93814 20.05634 24.708733 M 0.0 **** 0.0
13921 O 44.604919 29.658743 48.006289 O 0.0 **** 0.0
13922 H 45.53245 29.44192 47.911931 H 0.0 **** 0.0
13923 H 44.534177 30.556628 47.682212 H 0.0 **** 0.0
13924 M 44.714599 29.745928 47.952724 M 0.0 **** 0.0
13925 O 12.443181 38.219878 8.374506 O 0.0 **** 0.0
13926 H 12.234426 37.873835 7.506805 H 0.0 **** 0.0
13927 H 12.704494 37.451931 8.882642 H 0.0 **** 0.0
13928 M 12.44991 38.077273 8.328477 M 0.0 **** 0.0
13929 O 22.665055 33.460474 28.873573 O 0.0 **** 0.0
13930 H 21.998323 32.783887 28.755564 H 0.0 **** 0.0
13931 H 22.168173 34.27306 28.968655 H 0.0 **** 0.0
13932 M 22.516098 33.477884 28.870638 M 0.0 **** 0.0
13933 O 0.276534 12.722435 3.260307 O 0.0 **** 0.0
13934 H 1.230642 12.687845 3.191682 H 0.0 **** 0.0
13935 H -1.1e-05 11.806758 3.224433 H 0.0 **** 0.0
13936 M 0.36327 12.600789 3.24693 M 0.0 **** 0.0
13937 O 31.407892 23.381803 38.279417 O 0.0 **** 0.0
13938 H 30.465163 23.21609 38.273884 H 0.0 **** 0.0
13939 H 31.695901 23.100587 39.147863 H 0.0 **** 0.0
13940 M 31.32408 23.32459 38.389881 M 0.0 **** 0.0
13941 O 46.585501 5.063315 7.291324 O 0.0 **** 0.0
13942 H 47.508268 4.864754 7.450397 H 0.0 **** 0.0
13943 H 46.594042 5.923344 6.871198 H 0.0 **** 0.0
13944 M 46.70472 5.147992 7.257906 M 0.0 **** 0.0
13945 O 35.542033 7.175693 13.876113 O 0.0 **** 0.0
13946 H 35.18593 6.320436 14.116854 H 0.0 **** 0.0
13947 H 34.775575 7.745556 13.812656 H 0.0 **** 0.0
13948 M 35.398331 7.139159 13.898808 M 0.0 **** 0.0
13949 O 38.396063 4.792904 23.383772 O 0.0 **** 0.0
13950 H 38.600569 3.8579 23.370657 H 0.0 **** 0.0
13951 H 37.439579 4.829296 23.390256 H 0.0 **** 0.0
13952 M 38.2998 4.677871 23.382923 M 0.0 **** 0.0
13953 O 42.064086 33.334991 19.598233 O 0.0 **** 0.0
13954 H 41.35094 32.71924 19.767055 H 0.0 **** 0.0
13955 H 42.848416 32.787969 19.555553 H 0.0 **** 0.0
13956 M 42.073198 33.186142 19.61438 M 0.0 **** 0.0
13957 O 29.451557 22.407399 35.868333 O 0.0 **** 0.0
13958 H 29.246119 21.490906 35.683764 H 0.0 **** 0.0
13959 H 28.598196 22.835583 35.936618 H 0.0 **** 0.0
13960 M 29.316017 22.344889 35.853448 M 0.0 **** 0.0
13961 O 38.728442 13.421119 35.580733 O 0.0 **** 0.0
13962 H 38.034663 12.799733 35.359872 H 0.0 **** 0.0
13963 H 39.533271 12.904039 35.547454 H 0.0 **** 0.0
13964 M 38.742658 13.275381 35.5482 M 0.0 **** 0.0
13965 O 2.844885 24.465939 10.575795 O 0.0 **** 0.0
13966 H 3.353444 23.764745 10.983132 H 0.0 **** 0.0
13967 H 3.073989 24.420466 9.647532 H 0.0 **** 0.0
13968 M 2.939315 24.370356 10.50911 M 0.0 **** 0.0
13969 O 23.690265 21.155119 10.04675 O 0.0 **** 0.0
13970 H 24.580052 21.359292 9.758963 H 0.0 **** 0.0
13971 H 23.799307 20.44272 10.676692 H 0.0 **** 0.0
13972 M 23.818128 21.09006 10.09055 M 0.0 **** 0.0
13973 O 19.676342 23.466151 39.851441 O 0.0 **** 0.0
13974 H 20.263553 22.8231 39.454076 H 0.0 **** 0.0
13975 H 18.821121 23.036351 39.861271 H 0.0 **** 0.0
13976 M 19.642033 23.328812 39.801832 M 0.0 **** 0.0
13977 O 28.282208 13.55975 41.327194 O 0.0 **** 0.0
13978 H 27.506463 13.195608 41.753631 H 0.0 **** 0.0
13979 H 28.767088 12.794812 41.01737 H 0.0 **** 0.0
13980 M 28.244974 13.415213 41.342122 M 0.0 **** 0.0
13981 O 32.680387 32.662453 12.24121 O 0.0 **** 0.0
13982 H 32.342516 33.516688 11.972222 H 0.0 **** 0.0
13983 H 31.91645 32.085968 12.224022 H 0.0 **** 0.0
13984 M 32.539342 32.698008 12.204576 M 0.0 **** 0.0
13985 O 18.620272 34.26176 22.226317 O 0.0 **** 0.0
13986 H 19.037188 34.740415 21.509868 H 0.0 **** 0.0
13987 H 19.346062 33.99195 22.789043 H 0.0 **** 0.0
13988 M 18.766553 34.288495 22.206638 M 0.0 **** 0.0
13989 O 43.873953 11.033744 34.797242 O 0.0 **** 0.0
13990 H 44.31947 11.45321 34.061178 H 0.0 **** 0.0
13991 H 43.536528 10.213366 34.437583 H 0.0 **** 0.0
13992 M 43.88779 10.982422 34.656976 M 0.0 **** 0.0
13993 O 30.67816 22.442005 33.65384 O 0.0 **** 0.0
13994 H 31.584667 22.740129 33.579039 H 0.0 **** 0.0
13995 H 30.7413 21.585535 34.076571 H 0.0 **** 0.0
13996 M 30.802287 22.370529 33.698379 M 0.0 **** 0.0
13997 O 20.385608 20.955172 37.67415 O 0.0 **** 0.0
13998 H 21.188497 20.450082 37.545766 H 0.0 **** 0.0
13999 H 20.64451 21.862491 37.512994 H 0.0 **** 0.0
14000 M 20.521531 21.006662 37.637085 M 0.0 **** 0.0
14001 O 15.889397 42.416133 37.745904 O 0.0 **** 0.0
14002 H 15.752565 42.355432 38.691325 H 0.0 **** 0.0
14003 H 15.877589 43.355329 37.561516 H 0.0 **** 0.0
14004 M 15.870369 42.528591 37.843326 M 0.0 **** 0.0
14005 O 42.41741 27.564846 10.239983 O 0.0 **** 0.0
14006 H 42.571911 28.482523 10.015868 H 0.0 **** 0.0
14007 H 41.588752 27.349508 9.811983 H 0.0 **** 0.0
14008 M 42.33111 27.654754 10.156504 M 0.0 **** 0.0
14009 O 14.516236 11.62879 34.905257 O 0.0 **** 0.0
14010 H 13.570251 11.774818 34.901118 H 0.0 **** 0.0
14011 H 14.752905 11.61513 35.832635 H 0.0 **** 0.0
14012 M 14.425435 11.645734 35.023443 M 0.0 **** 0.0
14013 O 28.369334 26.238161 29.385646 O 0.0 **** 0.0
14014 H 27.66155 26.409259 30.006932 H 0.0 **** 0.0
14015 H 28.401174 25.284111 29.314912 H 0.0 **** 0.0
14016 M 28.282805 26.137934 29.456124 M 0.0 **** 0.0
14017 O 33.485384 41.433375 11.483471 O 0.0 **** 0.0
14018 H 32.94552 41.811534 12.177568 H 0.0 **** 0.0
14019 H 32.893829 40.846923 11.011916 H 0.0 **** 0.0
14020 M 33.340548 41.406711 11.511959 M 0.0 **** 0.0
14021 O 15.558429 47.412521 16.327443 O 0.0 **** 0.0
14022 H 15.330636 46.638654 15.812207 H 0.0 **** 0.0
14023 H 15.983689 48.000067 15.702805 H 0.0 **** 0.0
14024 M 15.583708 47.38867 16.181525 M 0.0 **** 0.0
14025 O 7.214269 26.789763 26.811221 O 0.0 **** 0.0
14026 H 7.005929 26.181505 26.102105 H 0.0 **** 0.0
14027 H 7.936733 27.317192 26.470497 H 0.0 **** 0.0
14028 M 7.280084 26.779416 26.676828 M 0.0 **** 0.0
14029 O 10.549847 43.476185 31.771725 O 0.0 **** 0.0
14030 H 10.060065 42.730168 31.425601 H 0.0 **** 0.0
14031 H 10.155297 43.646295 32.627074 H 0.0 **** 0.0
14032 M 10.436641 43.402462 31.836912 M 0.0 **** 0.0
14033 O 39.595405 36.383165 25.699544 O 0.0 **** 0.0
14034 H 40.453407 36.596936 25.332989 H 0.0 **** 0.0
14035 H 39.650026 35.451107 25.910523 H 0.0 **** 0.0
14036 M 39.712232 36.291216 25.679629 M 0.0 **** 0.0
14037 O 31.326287 3.822183 43.793387 O 0.0 **** 0.0
14038 H 32.21839 3.475228 43.791831 H 0.0 **** 0.0
14039 H 31.41287 4.70848 43.442373 H 0.0 **** 0.0
14040 M 31.451571 3.891226 43.748253 M 0.0 **** 0.0
14041 O 8.985213 9.916189 6.497484 O 0.0 **** 0.0
14042 H 8.164521 10.408039 6.525333 H 0.0 **** 0.0
14043 H 8.718071 9.013075 6.326459 H 0.0 **** 0.0
14044 M 8.845957 9.863542 6.479156 M 0.0 **** 0.0
14045 O 46.121175 1.971555 48.020582 O 0.0 **** 0.0
14046 H 45.278806 1.517007 48.026088 H 0.0 **** 0.0
14047 H 46.772188 1.270198 47.998017 H 0.0 **** 0.0
14048 M 46.096679 1.823584 48.018398 M 0.0 **** 0.0
14049 O 17.335547 6.35931 18.2119 O 0.0 **** 0.0
14050 H 18.204809 6.703385 18.417387 H 0.0 **** 0.0
14051 H 16.766958 7.12933 18.209901 H 0.0 **** 0.0
14052 M 17.374037 6.501928 18.237949 M 0.0 **** 0.0
14053 O 13.470234 39.078524 45.979108 O 0.0 **** 0.0
14054 H 13.830993 39.643653 46.662271 H 0.0 **** 0.0
14055 H 12.874018 38.491146 46.44359 H 0.0 **** 0.0
14056 M 13.440093 39.075676 46.126021 M 0.0 **** 0.0
14057 O 11.28304 33.751478 35.884406 O 0.0 **** 0.0
14058 H 12.038861 34.305449 36.079543 H 0.0 **** 0.0
14059 H 11.367137 33.550378 34.952357 H 0.0 **** 0.0
14060 M 11.39056 33.79665 35.790072 M 0.0 **** 0.0
14061 O 6.688427 8.41132 40.773948 O 0.0 **** 0.0
14062 H 5.918856 8.649976 41.290699 H 0.0 **** 0.0
14063 H 6.97857 7.578531 41.146117 H 0.0 **** 0.0
14064 M 6.627054 8.335263 40.887741 M 0.0 **** 0.0
14065 O 37.185206 8.59065 42.982802 O 0.0 **** 0.0
14066 H 37.059941 9.527155 43.136081 H 0.0 **** 0.0
14067 H 36.325768 8.276348 42.702071 H 0.0 **** 0.0
14068 M 37.059152 8.6703 42.966486 M 0.0 **** 0.0
14069 O 0.059499 9.797405 31.179984 O 0.0 **** 0.0
14070 H -0.010967 9.793258 32.134576 H 0.0 **** 0.0
14071 H 0.976274 9.584072 31.006086 H 0.0 **** 0.0
14072 M 0.167837 9.769565 31.279923 M 0.0 **** 0.0
14073 O 41.429646 13.609995 41.095751 O 0.0 **** 0.0
14074 H 41.206275 13.489539 40.172808 H 0.0 **** 0.0
14075 H 42.355567 13.373764 41.151387 H 0.0 **** 0.0
14076 M 41.519581 13.564335 40.984725 M 0.0 **** 0.0
14077 O 17.274197 3.622314 47.114643 O 0.0 **** 0.0
14078 H 17.447815 2.740272 46.785878 H 0.0 **** 0.0
14079 H 16.968874 3.488228 48.011876 H 0.0 **** 0.0
14080 M 17.257337 3.492237 47.187414 M 0.0 **** 0.0
14081 O 32.738478 10.560691 41.407624 O 0.0 **** 0.0
14082 H 32.908232 11.149281 42.143133 H 0.0 **** 0.0
14083 H 31.902634 10.145577 41.620404 H 0.0 **** 0.0
14084 M 32.65321 10.582898 41.529017 M 0.0 **** 0.0
14085 O 14.524077 23.206535 15.198722 O 0.0 **** 0.0
14086 H 13.612613 23.408397 14.987267 H 0.0 **** 0.0
14087 H 14.498864 22.906474 16.107323 H 0.0 **** 0.0
14088 M 14.404171 23.193965 15.287965 M 0.0 **** 0.0
14089 O 3.176407 25.299376 38.135254 O 0.0 **** 0.0
14090 H 3.035319 24.764892 38.916695 H 0.0 **** 0.0
14091 H 2.314371 25.664189 37.935169 H 0.0 **** 0.0
14092 M 3.047995 25.277656 38.209675 M 0.0 **** 0.0
14093 O 7.220974 22.83258 42.609529 O 0.0 **** 0.0
14094 H 7.182431 21.940105 42.265681 H 0.0 **** 0.0
14095 H 6.425818 22.921918 43.134861 H 0.0 **** 0.0
14096 M 7.11425 22.729769 42.632761 M 0.0 **** 0.0
14097 O 14.90063 10.196794 43.539884 O 0.0 **** 0.0
14098 H 15.765915 10.57018 43.372269 H 0.0 **** 0.0
14099 H 14.293662 10.922225 43.393019 H 0.0 **** 0.0
14100 M 14.933698 10.337457 43.499627 M 0.0 **** 0.0
14101 O 44.831321 31.040163 38.696565 O 0.0 **** 0.0
14102 H 45.752642 30.781349 38.716875 H 0.0 **** 0.0
14103 H 44.400952 30.443801 39.309234 H 0.0 **** 0.0
14104 M 44.894169 30.93069 38.777594 M 0.0 **** 0.0
14105 O 15.138273 36.231445 34.651313 O 0.0 **** 0.0
14106 H 14.332898 36.564493 34.255488 H 0.0 **** 0.0
14107 H 15.2477 36.75206 35.447061 H 0.0 **** 0.0
14108 M 15.049183 36.340725 34.702508 M 0.0 **** 0.0
14109 O 13.907432 16.210223 37.134503 O 0.0 **** 0.0
14110 H 14.382119 16.889943 36.656089 H 0.0 **** 0.0
14111 H 13.05674 16.159565 36.69863 H 0.0 **** 0.0
14112 M 13.859298 16.290751 37.017463 M 0.0 **** 0.0
14113 O 44.461182 12.794787 21.533997 O 0.0 **** 0.0
14114 H 43.831408 12.074468 21.506542 H 0.0 **** 0.0
14115 H 44.454534 13.084742 22.446198 H 0.0 **** 0.0
14116 M 44.379712 12.739695 21.647256 M 0.0 **** 0.0
14117 O 32.33619 24.920131 12.934697 O 0.0 **** 0.0
14118 H 32.070275 25.726183 12.492206 H 0.0 **** 0.0
14119 H 33.142922 24.657857 12.491273 H 0.0 **** 0.0
14120 M 32.405422 24.989742 12.821289 M 0.0 **** 0.0
14121 O 32.843712 4.651555 29.444562 O 0.0 **** 0.0
14122 H 33.78306 4.66173 29.260851 H 0.0 **** 0.0
14123 H 32.773582 4.945816 30.352703 H 0.0 **** 0.0
14124 M 32.954983 4.690527 29.537298 M 0.0 **** 0.0
14125 O 42.571768 22.890234 34.962823 O 0.0 **** 0.0
14126 H 43.521809 22.970717 34.878127 H 0.0 **** 0.0
14127 H 42.231233 23.157251 34.109027 H 0.0 **** 0.0
14128 M 42.649792 22.934718 34.842684 M 0.0 **** 0.0
14129 O 16.621164 18.523221 19.271775 O 0.0 **** 0.0
14130 H 15.906695 18.841153 18.719795 H 0.0 **** 0.0
14131 H 17.0673 17.8692 18.733772 H 0.0 **** 0.0
14132 M 16.586814 18.480197 19.132243 M 0.0 **** 0.0
14133 O 11.787983 40.099467 47.484805 O 0.0 **** 0.0
14134 H 11.101203 39.464035 47.686765 H 0.0 **** 0.0
14135 H 11.397649 40.948619 47.691707 H 0.0 **** 0.0
14136 M 11.650099 40.126826 47.537144 M 0.0 **** 0.0
14137 O 23.214483 7.189746 12.1406 O 0.0 **** 0.0
14138 H 23.374541 7.560366 11.272699 H 0.0 **** 0.0
14139 H 23.722708 7.741896 12.734793 H 0.0 **** 0.0
14140 M 23.300031 7.307872 12.105562 M 0.0 **** 0.0
14141 O 14.663667 2.702361 8.368304 O 0.0 **** 0.0
14142 H 15.535122 2.371364 8.150968 H 0.0 **** 0.0
14143 H 14.794499 3.218588 9.163679 H 0.0 **** 0.0
14144 M 14.791972 2.726073 8.4423 M 0.0 **** 0.0
14145 O 25.417057 17.812426 24.264728 O 0.0 **** 0.0
14146 H 25.767067 18.201785 23.463404 H 0.0 **** 0.0
14147 H 25.791267 18.339289 24.970852 H 0.0 **** 0.0
14148 M 25.509766 17.929714 24.252541 M 0.0 **** 0.0
14149 O 30.098372 15.796473 1.478013 O 0.0 **** 0.0
14150 H 29.499086 15.36808 2.089212 H 0.0 **** 0.0
14151 H 29.912611 15.386976 0.633007 H 0.0 **** 0.0
14152 M 29.997876 15.689212 1.448083 M 0.0 **** 0.0
14153 O 20.812857 36.410751 19.867401 O 0.0 **** 0.0
14154 H 21.468333 36.266011 20.549773 H 0.0 **** 0.0
14155 H 21.122803 37.184749 19.397201 H 0.0 **** 0.0
14156 M 20.936443 36.491304 19.894562 M 0.0 **** 0.0
14157 O 12.157478 24.948492 17.32097 O 0.0 **** 0.0
14158 H 12.794445 24.430423 16.828928 H 0.0 **** 0.0
14159 H 11.476444 25.160758 16.682718 H 0.0 **** 0.0
14160 M 12.151837 24.909345 17.176278 M 0.0 **** 0.0
14161 O 32.674495 34.481728 15.392726 O 0.0 **** 0.0
14162 H 33.283169 33.818234 15.717565 H 0.0 **** 0.0
14163 H 32.64507 35.140599 16.086449 H 0.0 **** 0.0
14164 M 32.748646 34.481136 15.523115 M 0.0 **** 0.0
14165 O 35.227493 44.654927 5.347199 O 0.0 **** 0.0
14166 H 34.324005 44.879058 5.570142 H 0.0 **** 0.0
14167 H 35.529619 45.385146 4.80708 H 0.0 **** 0.0
14168 M 35.150511 44.777096 5.306596 M 0.0 **** 0.0
14169 O 3.841163 2.224967 25.021285 O 0.0 **** 0.0
14170 H 4.743454 2.359622 24.731515 H 0.0 **** 0.0
14171 H 3.322034 2.269642 24.218329 H 0.0 **** 0.0
14172 M 3.890212 2.247923 24.881402 M 0.0 **** 0.0
14173 O 42.403753 40.266096 47.994377 O 0.0 **** 0.0
14174 H 42.643583 41.192755 47.990933 H 0.0 **** 0.0
14175 H 41.446567 40.265945 47.999111 H 0.0 **** 0.0
14176 M 42.311923 40.3847 47.994542 M 0.0 **** 0.0
14177 O 46.826103 13.386008 47.999553 O 0.0 **** 0.0
14178 H 46.714025 12.58893 47.481543 H 0.0 **** 0.0
14179 H 46.699388 14.098898 47.373486 H 0.0 **** 0.0
14180 M 46.795535 13.375231 47.853097 M 0.0 **** 0.0
14181 O 22.140639 3.999878 42.852677 O 0.0 **** 0.0
14182 H 22.795812 4.269585 42.209066 H 0.0 **** 0.0
14183 H 21.794768 4.821315 43.201737 H 0.0 **** 0.0
14184 M 22.180233 4.139558 42.814971 M 0.0 **** 0.0
14185 O 1.291169 19.748127 32.107749 O 0.0 **** 0.0
14186 H 1.430321 20.690329 32.01225 H 0.0 **** 0.0
14187 H 0.389857 19.608014 31.81752 H 0.0 **** 0.0
14188 M 1.193603 19.850804 32.058371 M 0.0 **** 0.0
14189 O 33.589826 3.370937 11.768078 O 0.0 **** 0.0
14190 H 34.163153 3.183021 12.511188 H 0.0 **** 0.0
14191 H 34.188046 3.564947 11.046467 H 0.0 **** 0.0
14192 M 33.739799 3.371717 11.77083 M 0.0 **** 0.0
14193 O 39.210134 28.379771 30.591286 O 0.0 **** 0.0
14194 H 40.079226 28.020427 30.413021 H 0.0 **** 0.0
14195 H 39.376169 29.276752 30.881264 H 0.0 **** 0.0
14196 M 39.342643 28.448595 30.605587 M 0.0 **** 0.0
14197 O 0.990878 44.588273 41.468784 O 0.0 **** 0.0
14198 H 0.052062 44.656539 41.295019 H 0.0 **** 0.0
14199 H 1.363403 45.385039 41.091137 H 0.0 **** 0.0
14200 M 0.918386 44.699008 41.398196 M 0.0 **** 0.0
14201 O 47.36159 42.746399 35.064588 O 0.0 **** 0.0
14202 H 46.650451 42.222861 35.433936 H 0.0 **** 0.0
14203 H 48.00356 42.102348 34.765754 H 0.0 **** 0.0
14204 M 47.352735 42.596933 35.073614 M 0.0 **** 0.0
14205 O 22.818647 2.238167 19.222417 O 0.0 **** 0.0
14206 H 22.817124 2.8269 19.977149 H 0.0 **** 0.0
14207 H 23.636712 2.435074 18.7661 H 0.0 **** 0.0
14208 M 22.923175 2.338739 19.260618 M 0.0 **** 0.0
14209 O 23.578425 34.413823 7.707551 O 0.0 **** 0.0
14210 H 22.934599 34.529793 8.406312 H 0.0 **** 0.0
14211 H 24.423209 34.411118 8.157619 H 0.0 **** 0.0
14212 M 23.60415 34.428322 7.854616 M 0.0 **** 0.0
14213 O 22.425918 39.836039 28.362326 O 0.0 **** 0.0
14214 H 22.7437 40.510955 27.762551 H 0.0 **** 0.0
14215 H 23.210054 39.53359 28.820457 H 0.0 **** 0.0
14216 M 22.566977 39.88372 28.344194 M 0.0 **** 0.0
14217 O 44.439121 4.830501 4.309099 O 0.0 **** 0.0
14218 H 43.553941 4.889321 3.94962 H 0.0 **** 0.0
14219 H 44.879833 4.184423 3.757206 H 0.0 **** 0.0
14220 M 44.382223 4.755325 4.192432 M 0.0 **** 0.0
14221 O 26.36579 3.965134 15.370973 O 0.0 **** 0.0
14222 H 26.023074 4.818509 15.636539 H 0.0 **** 0.0
14223 H 27.290817 4.125516 15.184343 H 0.0 **** 0.0
14224 M 26.440333 4.094907 15.381078 M 0.0 **** 0.0
14225 O 14.39399 23.466373 46.743519 O 0.0 **** 0.0
14226 H 13.579581 23.969124 46.75792 H 0.0 **** 0.0
14227 H 14.926235 23.851699 47.439556 H 0.0 **** 0.0
14228 M 14.35787 23.580058 46.834464 M 0.0 **** 0.0
14229 O 43.954163 35.366231 31.912489 O 0.0 **** 0.0
14230 H 43.079901 35.386788 31.523296 H 0.0 **** 0.0
14231 H 44.129767 34.436781 32.05917 H 0.0 **** 0.0
14232 M 43.864726 35.249881 31.881444 M 0.0 **** 0.0
14233 O 26.086652 2.969849 10.547697 O 0.0 **** 0.0
14234 H 25.159756 3.171349 10.67611 H 0.0 **** 0.0
14235 H 26.113909 2.018154 10.448898 H 0.0 **** 0.0
14236 M 25.971487 2.873815 10.551488 M 0.0 **** 0.0
14237 O 31.41626 22.035438 6.299629 O 0.0 **** 0.0
14238 H 31.072639 22.862643 6.637096 H 0.0 **** 0.0
14239 H 32.050884 22.293998 5.631327 H 0.0 **** 0.0
14240 M 31.453512 22.174429 6.257278 M 0.0 **** 0.0
14241 O 15.5581 2.822963 31.706095 O 0.0 **** 0.0
14242 H 14.778641 3.32751 31.9387 H 0.0 **** 0.0
14243 H 16.238804 3.147476 32.29564 H 0.0 **** 0.0
14244 M 15.545458 2.929094 31.811341 M 0.0 **** 0.0
14245 O 17.71351 22.548934 6.481839 O 0.0 **** 0.0
14246 H 17.256947 22.546312 5.640547 H 0.0 **** 0.0
14247 H 17.105471 22.123178 7.086197 H 0.0 **** 0.0
14248 M 17.577227 22.494096 6.451508 M 0.0 **** 0.0
14249 O 23.102842 4.367392 40.031045 O 0.0 **** 0.0
14250 H 24.045553 4.529285 40.067293 H 0.0 **** 0.0
14251 H 23.02474 3.41478 39.979476 H 0.0 **** 0.0
14252 M 23.213522 4.26617 40.029084 M 0.0 **** 0.0
14253 O 45.025656 34.582869 8.999689 O 0.0 **** 0.0
14254 H 44.851333 33.641679 9.000446 H 0.0 **** 0.0
14255 H 45.98049 34.650092 9.001119 H 0.0 **** 0.0
14256 M 45.125571 34.470991 8.999969 M 0.0 **** 0.0
14257 O 19.381963 12.418505 32.758337 O 0.0 **** 0.0
14258 H 18.554114 12.270188 33.215387 H 0.0 **** 0.0
14259 H 19.419483 11.725734 32.098875 H 0.0 **** 0.0
14260 M 19.280791 12.310835 32.732426 M 0.0 **** 0.0
14261 O 42.666822 38.225885 14.820245 O 0.0 **** 0.0
14262 H 42.456251 37.546772 14.179391 H 0.0 **** 0.0
14263 H 42.462347 39.048011 14.374681 H 0.0 **** 0.0
14264 M 42.613691 38.244193 14.68117 M 0.0 **** 0.0
14265 O 5.659087 37.333267 19.615073 O 0.0 **** 0.0
14266 H 4.939319 36.938743 19.122617 H 0.0 **** 0.0
14267 H 5.290147 38.140111 19.974396 H 0.0 **** 0.0
14268 M 5.519719 37.386049 19.59803 M 0.0 **** 0.0
14269 O 23.920607 25.801943 17.053994 O 0.0 **** 0.0
14270 H 24.140809 25.761421 17.984638 H 0.0 **** 0.0
14271 H 23.008283 26.091003 17.03561 H 0.0 **** 0.0
14272 M 23.832006 25.833759 17.170775 M 0.0 **** 0.0
14273 O 44.449432 24.254575 45.696697 O 0.0 **** 0.0
14274 H 44.124372 25.088087 46.037025 H 0.0 **** 0.0
14275 H 45.229397 24.069558 46.219816 H 0.0 **** 0.0
14276 M 44.507666 24.337591 45.807229 M 0.0 **** 0.0
14277 O 22.642742 6.820949 14.580601 O 0.0 **** 0.0
14278 H 23.555091 6.614255 14.783398 H 0.0 **** 0.0
14279 H 22.228251 5.96899 14.444248 H 0.0 **** 0.0
14280 M 22.706474 6.685428 14.589107 M 0.0 **** 0.0
14281 O 19.327077 0.880215 4.576177 O 0.0 **** 0.0
14282 H 19.194668 -0.000553 4.92681 H 0.0 **** 0.0
14283 H 20.242474 1.080987 4.771032 H 0.0 **** 0.0
14284 M 19.427309 0.793167 4.646006 M 0.0 **** 0.0
14285 O 18.103645 31.01903 36.853908 O 0.0 **** 0.0
14286 H 18.34981 30.094057 36.861428 H 0.0 **** 0.0
14287 H 17.14656 31.012562 36.840679 H 0.0 **** 0.0
14288 M 18.012638 30.899794 36.853177 M 0.0 **** 0.0
14289 O 0.009058 0.238876 45.450677 O 0.0 **** 0.0
14290 H 0.923134 -0.009192 45.58908 H 0.0 **** 0.0
14291 H -0.012743 1.180314 45.622282 H 0.0 **** 0.0
14292 M 0.12328 0.327636 45.490362 M 0.0 **** 0.0
14293 O 39.949134 40.225517 1.611894 O 0.0 **** 0.0
14294 H 39.600857 40.510614 0.767116 H 0.0 **** 0.0
14295 H 39.425894 39.457204 1.840246 H 0.0 **** 0.0
14296 M 39.837569 40.163659 1.532984 M 0.0 **** 0.0
14297 O 23.724288 13.667057 26.038269 O 0.0 **** 0.0
14298 H 23.101969 13.339786 25.388775 H 0.0 **** 0.0
14299 H 23.754267 12.983506 26.707663 H 0.0 **** 0.0
14300 M 23.648461 13.537659 26.040816 M 0.0 **** 0.0
14301 O 43.850409 41.453124 42.375919 O 0.0 **** 0.0
14302 H 43.004594 41.005893 42.347461 H 0.0 **** 0.0
14303 H 44.313336 41.140734 41.598526 H 0.0 **** 0.0
14304 M 43.801395 41.355883 42.27276 M 0.0 **** 0.0
14305 O 19.292545 29.513604 3.629078 O 0.0 **** 0.0
14306 H 19.837294 30.297091 3.554079 H 0.0 **** 0.0
14307 H 19.471134 29.180413 4.508464 H 0.0 **** 0.0
14308 M 19.385141 29.571247 3.73205 M 0.0 **** 0.0
14309 O 28.400057 33.80642 41.205757 O 0.0 **** 0.0
14310 H 27.948418 33.576461 40.393741 H 0.0 **** 0.0
14311 H 27.833924 34.458361 41.618909 H 0.0 **** 0.0
14312 M 28.26977 33.860439 41.154697 M 0.0 **** 0.0
14313 O 10.232346 26.013721 8.079704 O 0.0 **** 0.0
14314 H 9.306637 25.770249 8.083452 H 0.0 **** 0.0
14315 H 10.229515 26.966595 7.988862 H 0.0 **** 0.0
14316 M 10.113481 26.104533 8.068555 M 0.0 **** 0.0
14317 O 31.278059 18.515852 36.656673 O 0.0 **** 0.0
14318 H 32.038984 18.976596 37.010139 H 0.0 **** 0.0
14319 H 31.38838 17.611005 36.94875 H 0.0 **** 0.0
14320 M 31.389589 18.459002 36.739311 M 0.0 **** 0.0
14321 O 31.574748 31.300842 23.156357 O 0.0 **** 0.0
14322 H 30.742243 31.650827 22.839064 H 0.0 **** 0.0
14323 H 31.42353 30.35924 23.238495 H 0.0 **** 0.0
14324 M 31.448819 31.225108 23.126254 M 0.0 **** 0.0
14325 O 37.889033 26.61648 24.693137 O 0.0 **** 0.0
14326 H 38.807161 26.70204 24.436331 H 0.0 **** 0.0
14327 H 37.661182 27.471598 25.057946 H 0.0 **** 0.0
14328 M 37.977397 26.736899 24.706963 M 0.0 **** 0.0
14329 O 29.684257 9.781834 44.870513 O 0.0 **** 0.0
14330 H 29.312917 8.936612 45.123369 H 0.0 **** 0.0
14331 H 30.50796 9.561594 44.435499 H 0.0 **** 0.0
14332 M 29.742165 9.645441 44.847195 M 0.0 **** 0.0
14333 O 39.502829 42.772842 24.170962 O 0.0 **** 0.0
14334 H 40.321124 42.61542 24.641962 H 0.0 **** 0.0
14335 H 39.588296 42.264055 23.364699 H 0.0 **** 0.0
14336 M 39.618522 42.687559 24.128044 M 0.0 **** 0.0
14337 O 43.781656 2.711765 40.438636 O 0.0 **** 0.0
14338 H 44.609974 2.310765 40.175354 H 0.0 **** 0.0
14339 H 43.146818 1.996232 40.403689 H 0.0 **** 0.0
14340 M 43.806424 2.568835 40.400459 M 0.0 **** 0.0
14341 O 7.208126 2.916924 2.051457 O 0.0 **** 0.0
14342 H 6.893065 3.586708 2.658378 H 0.0 **** 0.0
14343 H 7.603451 3.410826 1.33312 H 0.0 **** 0.0
14344 M 7.218401 3.06589 2.037194 M 0.0 **** 0.0
14345 O 29.829837 20.319279 28.736121 O 0.0 **** 0.0
14346 H 30.777414 20.189604 28.697261 H 0.0 **** 0.0
14347 H 29.722799 21.203671 29.086296 H 0.0 **** 0.0
14348 M 29.937436 20.415892 28.775973 M 0.0 **** 0.0
14349 O 11.945766 15.503894 31.72034 O 0.0 **** 0.0
14350 H 12.792691 15.127677 31.959941 H 0.0 **** 0.0
14351 H 11.317043 14.799575 31.878048 H 0.0 **** 0.0
14352 M 11.973699 15.365572 31.771201 M 0.0 **** 0.0
14353 O 46.804584 35.588185 23.241637 O 0.0 **** 0.0
14354 H 46.612508 34.696206 22.952312 H 0.0 **** 0.0
14355 H 46.770821 35.543052 24.197175 H 0.0 **** 0.0
14356 M 46.775674 35.468223 23.326921 M 0.0 **** 0.0
14357 O 19.465611 10.70175 17.271092 O 0.0 **** 0.0
14358 H 18.753004 10.063565 17.304851 H 0.0 **** 0.0
14359 H 19.987009 10.520876 18.053177 H 0.0 **** 0.0
14360 M 19.441134 10.5969 17.37553 M 0.0 **** 0.0
14361 O 10.326599 29.982076 -0.00526 O 0.0 **** 0.0
14362 H 9.390475 29.920639 0.184808 H 0.0 **** 0.0
14363 H 10.638775 29.077958 0.031419 H 0.0 **** 0.0
14364 M 10.246726 29.858473 0.023766 M 0.0 **** 0.0
14365 O 3.938616 4.68692 27.356175 O 0.0 **** 0.0
14366 H 4.725385 4.971998 27.820884 H 0.0 **** 0.0
14367 H 4.007191 5.097177 26.494076 H 0.0 **** 0.0
14368 M 4.048111 4.775932 27.305304 M 0.0 **** 0.0
14369 O 7.333232 47.15951 5.550069 O 0.0 **** 0.0
14370 H 7.327591 46.224647 5.755562 H 0.0 **** 0.0
14371 H 6.685726 47.255632 4.851697 H 0.0 **** 0.0
14372 M 7.249621 47.052141 5.486974 M 0.0 **** 0.0
14373 O 0.461459 7.858224 22.616253 O 0.0 **** 0.0
14374 H 0.000241 7.87895 21.777757 H 0.0 **** 0.0
14375 H 1.359434 8.111599 22.402546 H 0.0 **** 0.0
14376 M 0.517369 7.893312 22.481558 M 0.0 **** 0.0
14377 O 10.976197 35.062649 8.004386 O 0.0 **** 0.0
14378 H 11.158462 35.971127 7.764228 H 0.0 **** 0.0
14379 H 11.837418 34.646399 8.039921 H 0.0 **** 0.0
14380 M 11.109776 35.12566 7.978191 M 0.0 **** 0.0
14381 O 16.335807 5.920359 33.078045 O 0.0 **** 0.0
14382 H 17.232512 6.045965 32.767608 H 0.0 **** 0.0
14383 H 16.325722 5.02969 33.428524 H 0.0 **** 0.0
14384 M 16.449306 5.822422 33.083171 M 0.0 **** 0.0
14385 O 40.168922 38.128203 27.650009 O 0.0 **** 0.0
14386 H 39.976885 38.290852 26.726486 H 0.0 **** 0.0
14387 H 40.614722 37.281182 27.656875 H 0.0 **** 0.0
14388 M 40.201407 38.040595 27.532666 M 0.0 **** 0.0
14389 O 20.581263 4.088434 40.180334 O 0.0 **** 0.0
14390 H 19.820917 3.50929 40.128437 H 0.0 **** 0.0
14391 H 21.07185 3.772993 40.939313 H 0.0 **** 0.0
14392 M 20.54673 3.973916 40.270849 M 0.0 **** 0.0
14393 O 14.954035 3.241993 35.99921 O 0.0 **** 0.0
14394 H 14.960618 4.19373 36.101102 H 0.0 **** 0.0
14395 H 15.875068 3.006125 35.888338 H 0.0 **** 0.0
14396 M 15.072782 3.333633 35.998061 M 0.0 **** 0.0
14397 O 32.941984 42.929413 8.733839 O 0.0 **** 0.0
14398 H 32.342045 42.191449 8.625618 H 0.0 **** 0.0
14399 H 32.380449 43.703432 8.6914 H 0.0 **** 0.0
14400 M 32.793301 42.934028 8.714553 M 0.0 **** 0.0
14401 O 16.543981 44.980587 21.867597 O 0.0 **** 0.0
14402 H 15.726054 44.486353 21.813212 H 0.0 **** 0.0
14403 H 16.291697 45.883933 21.676423 H 0.0 **** 0.0
14404 M 16.40698 45.032959 21.836163 M 0.0 **** 0.0
14405 O 30.973505 10.752184 22.608233 O 0.0 **** 0.0
14406 H 30.315305 10.437062 21.988798 H 0.0 **** 0.0
14407 H 31.385413 9.956894 22.945981 H 0.0 **** 0.0
14408 M 30.941976 10.610038 22.572173 M 0.0 **** 0.0
14409 O 18.782869 9.845379 33.04615 O 0.0 **** 0.0
14410 H 18.246954 10.163916 33.772483 H 0.0 **** 0.0
14411 H 19.616132 9.60388 33.450601 H 0.0 **** 0.0
14412 M 18.820933 9.855241 33.190905 M 0.0 **** 0.0
14413 O 17.475682 16.551172 9.569826 O 0.0 **** 0.0
14414 H 17.334092 16.156251 8.709467 H 0.0 **** 0.0
14415 H 17.062054 17.412286 9.509632 H 0.0 **** 0.0
14416 M 17.404607 16.610851 9.451984 M 0.0 **** 0.0
14417 O 23.434884 32.361001 39.67751 O 0.0 **** 0.0
14418 H 22.548302 32.047759 39.498404 H 0.0 **** 0.0
14419 H 23.983976 31.580053 39.607884 H 0.0 **** 0.0
14420 M 23.391681 32.220931 39.645669 M 0.0 **** 0.0
14421 O 4.289069 2.180416 4.804684 O 0.0 **** 0.0
14422 H 3.607906 2.809312 5.042879 H 0.0 **** 0.0
14423 H 5.057309 2.719028 4.615126 H 0.0 **** 0.0
14424 M 4.300216 2.329872 4.81091 M 0.0 **** 0.0
14425 O 20.262243 18.760847 15.894129 O 0.0 **** 0.0
14426 H 20.364642 17.828813 16.086631 H 0.0 **** 0.0
14427 H 19.322756 18.922094 15.981258 H 0.0 **** 0.0
14428 M 20.155085 18.662176 15.929925 M 0.0 **** 0.0
14429 O 18.930308 30.797626 5.934893 O 0.0 **** 0.0
14430 H 19.752266 31.140013 5.583629 H 0.0 **** 0.0
14431 H 18.258627 31.125967 5.337177 H 0.0 **** 0.0
14432 M 18.949545 30.883488 5.813412 M 0.0 **** 0.0
14433 O 4.575193 15.365859 15.563462 O 0.0 **** 0.0
14434 H 5.122443 15.906571 14.993922 H 0.0 **** 0.0
14435 H 3.838663 15.104376 15.01085 H 0.0 **** 0.0
14436 M 4.550963 15.401604 15.419813 M 0.0 **** 0.0
14437 O 47.413488 35.765596 3.020222 O 0.0 **** 0.0
14438 H 46.535891 35.751164 2.638327 H 0.0 **** 0.0
14439 H 47.282552 35.506775 3.932415 H 0.0 **** 0.0
14440 M 47.284383 35.730616 3.088107 M 0.0 **** 0.0
14441 O 34.118211 34.358135 37.795827 O 0.0 **** 0.0
14442 H 33.238763 34.6171 37.520625 H 0.0 **** 0.0
14443 H 34.123041 33.404164 37.717431 H 0.0 **** 0.0
14444 M 34.006249 34.269165 37.750562 M 0.0 **** 0.0
14445 O 10.436678 45.539708 1.037187 O 0.0 **** 0.0
14446 H 9.605899 45.681165 0.583289 H 0.0 **** 0.0
14447 H 10.527489 46.298512 1.613555 H 0.0 **** 0.0
14448 M 10.341953 45.654953 1.052865 M 0.0 **** 0.0
14449 O 26.912175 32.650621 14.383394 O 0.0 **** 0.0
14450 H 25.985933 32.813689 14.205313 H 0.0 **** 0.0
14451 H 27.244347 32.250866 13.579599 H 0.0 **** 0.0
14452 M 26.836126 32.620322 14.257702 M 0.0 **** 0.0
14453 O 29.726888 17.46876 38.398321 O 0.0 **** 0.0
14454 H 29.802373 18.422964 38.403324 H 0.0 **** 0.0
14455 H 28.784224 17.30259 38.398101 H 0.0 **** 0.0
14456 M 29.615878 17.569638 38.398933 M 0.0 **** 0.0
14457 O 36.608757 7.580092 0.160187 O 0.0 **** 0.0
14458 H 36.427968 8.463845 0.480383 H 0.0 **** 0.0
14459 H 37.5523 7.571463 -0.000685 H 0.0 **** 0.0
14460 M 36.706399 7.692119 0.180582 M 0.0 **** 0.0
14461 O 39.796706 8.023197 46.554829 O 0.0 **** 0.0
14462 H 40.206688 7.262575 46.966652 H 0.0 **** 0.0
14463 H 39.240494 8.395809 47.238947 H 0.0 **** 0.0
14464 M 39.777987 7.973527 46.695123 M 0.0 **** 0.0
14465 O 6.251453 27.43458 43.288332 O 0.0 **** 0.0
14466 H 5.82979 26.603578 43.507114 H 0.0 **** 0.0
14467 H 7.032023 27.184754 42.793838 H 0.0 **** 0.0
14468 M 6.297397 27.296221 43.253038 M 0.0 **** 0.0
14469 O 6.514951 16.94777 20.976183 O 0.0 **** 0.0
14470 H 5.674309 16.493356 21.031471 H 0.0 **** 0.0
14471 H 6.288638 17.876933 21.01702 H 0.0 **** 0.0
14472 M 6.378368 17.008544 20.988488 M 0.0 **** 0.0
14473 O 35.06819 15.031514 15.808906 O 0.0 **** 0.0
14474 H 35.481083 15.692584 15.253267 H 0.0 **** 0.0
14475 H 34.183845 14.938577 15.454611 H 0.0 **** 0.0
14476 M 35.007838 15.104242 15.692423 M 0.0 **** 0.0
14477 O 5.983506 19.947388 32.232501 O 0.0 **** 0.0
14478 H 6.937733 19.963128 32.306197 H 0.0 **** 0.0
14479 H 5.735616 20.866107 32.128892 H 0.0 **** 0.0
14480 M 6.073926 20.06701 32.228672 M 0.0 **** 0.0
14481 O 35.786952 20.420652 32.146165 O 0.0 **** 0.0
14482 H 36.663923 20.081976 31.966028 H 0.0 **** 0.0
14483 H 35.867199 21.367591 32.031734 H 0.0 **** 0.0
14484 M 35.909488 20.498517 32.108457 M 0.0 **** 0.0
14485 O 10.746125 7.482536 14.213917 O 0.0 **** 0.0
14486 H 9.812472 7.671537 14.12011 H 0.0 **** 0.0
14487 H 10.995632 7.085484 13.379457 H 0.0 **** 0.0
14488 M 10.658546 7.455903 14.095087 M 0.0 **** 0.0
14489 O 38.486783 18.543465 46.193725 O 0.0 **** 0.0
14490 H 37.756721 18.785928 45.624121 H 0.0 **** 0.0
14491 H 38.449488 17.588024 46.238118 H 0.0 **** 0.0
14492 M 38.388552 18.452195 46.126492 M 0.0 **** 0.0
14493 O 44.782759 5.877409 22.596827 O 0.0 **** 0.0
14494 H 45.013207 5.618693 23.489121 H 0.0 **** 0.0
14495 H 45.135196 6.762614 22.505019 H 0.0 **** 0.0
14496 M 44.857375 5.957608 22.699299 M 0.0 **** 0.0
14497 O 9.087146 23.451627 6.248364 O 0.0 **** 0.0
14498 H 8.887234 23.62019 5.327576 H 0.0 **** 0.0
14499 H 8.358206 23.84497 6.72811 H 0.0 **** 0.0
14500 M 8.968241 23.523558 6.191905 M 0.0 **** 0.0
14501 O 14.312885 12.512663 6.822294 O 0.0 **** 0.0
14502 H 14.190786 11.614532 6.514592 H 0.0 **** 0.0
14503 H 14.841884 12.424873 7.615189 H 0.0 **** 0.0
14504 M 14.364973 12.386453 6.884405 M 0.0 **** 0.0
14505 O 12.688975 32.068659 31.256539 O 0.0 **** 0.0
14506 H 12.897529 31.15235 31.438503 H 0.0 **** 0.0
14507 H 13.289306 32.316353 30.553347 H 0.0 **** 0.0
14508 M 12.792522 31.983068 31.189815 M 0.0 **** 0.0
14509 O 34.512127 28.370934 38.677364 O 0.0 **** 0.0
14510 H 33.837279 27.781216 38.341149 H 0.0 **** 0.0
14511 H 35.305525 27.836212 38.706005 H 0.0 **** 0.0
14512 M 34.527303 28.226991 38.637991 M 0.0 **** 0.0
14513 O 33.786901 40.6607 35.421565 O 0.0 **** 0.0
14514 H 33.847193 41.463943 35.938668 H 0.0 **** 0.0
14515 H 34.564925 40.675153 34.864161 H 0.0 **** 0.0
14516 M 33.894216 40.765376 35.416406 M 0.0 **** 0.0
14517 O 3.918753 42.805484 30.099149 O 0.0 **** 0.0
14518 H 3.015572 42.496381 30.028807 H 0.0 **** 0.0
14519 H 4.450868 42.052072 29.843312 H 0.0 **** 0.0
14520 M 3.871252 42.669469 30.057394 M 0.0 **** 0.0
14521 O 29.785903 11.344169 24.427559 O 0.0 **** 0.0
14522 H 29.157624 10.860208 23.891577 H 0.0 **** 0.0
14523 H 30.377471 10.673305 24.768466 H 0.0 **** 0.0
14524 M 29.781203 11.196337 24.402587 M 0.0 **** 0.0
14525 O 2.318655 1.424013 44.713503 O 0.0 **** 0.0
14526 H 1.93598 2.028639 44.077723 H 0.0 **** 0.0
14527 H 3.070508 1.896166 45.071298 H 0.0 **** 0.0
14528 M 2.365914 1.561854 44.677917 M 0.0 **** 0.0
14529 O 4.728015 40.313515 47.218182 O 0.0 **** 0.0
14530 H 5.028729 39.41308 47.340722 H 0.0 **** 0.0
14531 H 3.776529 40.263333 47.309753 H 0.0 **** 0.0
14532 M 4.644708 40.191824 47.245591 M 0.0 **** 0.0
14533 O 31.146183 15.328079 29.95038 O 0.0 **** 0.0
14534 H 30.29476 15.764136 29.984453 H 0.0 **** 0.0
14535 H 30.936237 14.397072 29.877046 H 0.0 **** 0.0
14536 M 31.010314 15.264719 29.945354 M 0.0 **** 0.0
14537 O 17.996253 15.963115 25.018779 O 0.0 **** 0.0
14538 H 17.948538 15.082099 25.389944 H 0.0 **** 0.0
14539 H 17.099998 16.294922 25.072244 H 0.0 **** 0.0
14540 M 17.875413 15.892809 25.073137 M 0.0 **** 0.0
14541 O 48.004224 47.177824 35.01073 O 0.0 **** 0.0
14542 H 47.873159 46.613421 35.772635 H 0.0 **** 0.0
14543 H 47.57504 48.000719 35.244978 H 0.0 **** 0.0
14544 M 47.932505 47.210914 35.13825 M 0.0 **** 0.0
14545 O 13.930943 42.748813 1.091562 O 0.0 **** 0.0
14546 H 13.861935 42.177809 0.326434 H 0.0 **** 0.0
14547 H 14.559521 43.42254 0.832311 H 0.0 **** 0.0
14548 M 14.002575 42.761962 0.960429 M 0.0 **** 0.0
14549 O 9.120655 9.202354 28.194952 O 0.0 **** 0.0
14550 H 9.480573 8.333437 28.372915 H 0.0 **** 0.0
14551 H 9.728956 9.806018 28.621319 H 0.0 **** 0.0
14552 M 9.244599 9.168399 28.272314 M 0.0 **** 0.0
14553 O 43.826569 21.055004 11.638775 O 0.0 **** 0.0
14554 H 43.728474 20.476648 10.882395 H 0.0 **** 0.0
14555 H 43.42474 20.574105 12.362307 H 0.0 **** 0.0
14556 M 43.762572 20.919406 11.63457 M 0.0 **** 0.0
14557 O 28.609563 27.739588 23.118603 O 0.0 **** 0.0
14558 H 27.693779 27.988843 23.242855 H 0.0 **** 0.0
14559 H 29.079246 28.19546 23.817035 H 0.0 **** 0.0
14560 M 28.552457 27.829853 23.223917 M 0.0 **** 0.0
14561 O 43.751901 46.466538 25.448788 O 0.0 **** 0.0
14562 H 44.661729 46.761266 25.488496 H 0.0 **** 0.0
14563 H 43.25371 47.168667 25.867178 H 0.0 **** 0.0
14564 M 43.804595 46.594148 25.50743 M 0.0 **** 0.0
14565 O 35.963216 4.134922 5.949183 O 0.0 **** 0.0
14566 H 35.069841 4.072972 6.287226 H 0.0 **** 0.0
14567 H 36.376848 3.31272 6.212092 H 0.0 **** 0.0
14568 M 35.901803 4.02174 6.026113 M 0.0 **** 0.0
14569 O 3.630979 31.511995 10.681145 O 0.0 **** 0.0
14570 H 3.429982 32.444055 10.596924 H 0.0 **** 0.0
14571 H 2.829825 31.124627 11.033745 H 0.0 **** 0.0
14572 M 3.502691 31.581723 10.715501 M 0.0 **** 0.0
14573 O 7.329831 47.586257 43.123497 O 0.0 **** 0.0
14574 H 7.596831 47.487901 44.037426 H 0.0 **** 0.0
14575 H 8.136182 47.81493 42.661182 H 0.0 **** 0.0
14576 M 7.467233 47.602939 43.181309 M 0.0 **** 0.0
14577 O 34.567911 13.342502 5.788116 O 0.0 **** 0.0
14578 H 35.21917 12.642247 5.829751 H 0.0 **** 0.0
14579 H 34.054131 13.146143 5.004725 H 0.0 **** 0.0
14580 M 34.58551 13.227724 5.693162 M 0.0 **** 0.0
14581 O 14.224092 9.259446 39.325818 O 0.0 **** 0.0
14582 H 14.796679 8.502265 39.448492 H 0.0 **** 0.0
14583 H 13.6568 9.015358 38.594498 H 0.0 **** 0.0
14584 M 14.22477 9.131271 39.247904 M 0.0 **** 0.0
14585 O 44.01282 35.693863 19.882304 O 0.0 **** 0.0
14586 H 43.12629 35.444291 19.621524 H 0.0 **** 0.0
14587 H 44.46904 34.861893 20.00847 H 0.0 **** 0.0
14588 M 43.957735 35.555412 19.865072 M 0.0 **** 0.0
14589 O 26.021774 39.162523 34.656752 O 0.0 **** 0.0
14590 H 26.943398 39.157167 34.398277 H 0.0 **** 0.0
14591 H 26.036957 39.016666 35.602651 H 0.0 **** 0.0
14592 M 26.141697 39.143166 34.744751 M 0.0 **** 0.0
14593 O 27.923366 19.109785 37.488796 O 0.0 **** 0.0
14594 H 27.228249 18.552358 37.13906 H 0.0 **** 0.0
14595 H 27.805095 19.948782 37.043459 H 0.0 **** 0.0
14596 M 27.819242 19.14583 37.387016 M 0.0 **** 0.0
14597 O 26.0005 6.625418 14.362996 O 0.0 **** 0.0
14598 H 26.858094 6.921904 14.667721 H 0.0 **** 0.0
14599 H 25.6394 7.377466 13.893678 H 0.0 **** 0.0
14600 M 26.064057 6.759643 14.341926 M 0.0 **** 0.0
14601 O 32.338469 40.293915 42.441388 O 0.0 **** 0.0
14602 H 32.473224 39.53108 43.003663 H 0.0 **** 0.0
14603 H 33.169522 40.767584 42.47629 H 0.0 **** 0.0
14604 M 32.462105 40.256898 42.517834 M 0.0 **** 0.0
14605 O 15.946861 35.862521 42.614577 O 0.0 **** 0.0
14606 H 16.055506 35.098693 42.048014 H 0.0 **** 0.0
14607 H 15.937037 35.503692 43.501918 H 0.0 **** 0.0
14608 M 15.959511 35.718807 42.65564 M 0.0 **** 0.0
14609 O 36.076018 32.66868 28.768018 O 0.0 **** 0.0
14610 H 35.585162 32.058656 29.318619 H 0.0 **** 0.0
14611 H 36.900744 32.803058 29.234921 H 0.0 **** 0.0
14612 M 36.118757 32.607791 28.898272 M 0.0 **** 0.0
14613 O 33.028193 1.304043 12.418413 O 0.0 **** 0.0
14614 H 32.388108 0.891965 11.838145 H 0.0 **** 0.0
14615 H 33.5905 0.584413 12.70507 H 0.0 **** 0.0
14616 M 33.018237 1.15917 12.380827 M 0.0 **** 0.0
14617 O 32.585048 11.138388 14.214298 O 0.0 **** 0.0
14618 H 33.326481 10.574424 13.994183 H 0.0 **** 0.0
14619 H 31.953324 10.552464 14.631248 H 0.0 **** 0.0
14620 M 32.599092 10.991188 14.239495 M 0.0 **** 0.0
14621 O 32.691916 11.974468 34.030876 O 0.0 **** 0.0
14622 H 32.578939 12.719019 33.440022 H 0.0 **** 0.0
14623 H 33.199624 11.340765 33.524041 H 0.0 **** 0.0
14624 M 32.742446 11.988658 33.890358 M 0.0 **** 0.0
14625 O 42.960909 14.200839 24.273634 O 0.0 **** 0.0
14626 H 42.430568 13.515775 23.866629 H 0.0 **** 0.0
14627 H 43.809766 13.78669 24.429045 H 0.0 **** 0.0
14628 M 43.001683 14.060126 24.241427 M 0.0 **** 0.0
14629 O 16.066412 32.756402 23.853708 O 0.0 **** 0.0
14630 H 16.584188 32.62653 23.059183 H 0.0 **** 0.0
14631 H 16.112593 33.698089 24.019002 H 0.0 **** 0.0
14632 M 16.138606 32.860325 23.773158 M 0.0 **** 0.0
14633 O 24.465881 41.94049 41.268719 O 0.0 **** 0.0
14634 H 24.738455 41.238344 40.678021 H 0.0 **** 0.0
14635 H 25.14579 41.96516 41.942026 H 0.0 **** 0.0
14636 M 24.587811 41.853764 41.279294 M 0.0 **** 0.0
14637 O 32.666619 6.551333 37.423976 O 0.0 **** 0.0
14638 H 33.062187 7.402279 37.235177 H 0.0 **** 0.0
14639 H 33.408449 5.981685 37.62749 H 0.0 **** 0.0
14640 M 32.81222 6.587342 37.42586 M 0.0 **** 0.0
14641 O 36.110264 32.954592 7.790928 O 0.0 **** 0.0
14642 H 36.997208 33.30217 7.697394 H 0.0 **** 0.0
14643 H 36.063672 32.241269 7.154352 H 0.0 **** 0.0
14644 M 36.217839 32.907772 7.697465 M 0.0 **** 0.0
14645 O 1.631234 31.29826 45.278555 O 0.0 **** 0.0
14646 H 2.568796 31.105818 45.265483 H 0.0 **** 0.0
14647 H 1.214617 30.451391 45.438155 H 0.0 **** 0.0
14648 M 1.697921 31.165215 45.297313 M 0.0 **** 0.0
14649 O 17.380255 1.429057 9.659776 O 0.0 **** 0.0
14650 H 17.14166 2.327914 9.886398 H 0.0 **** 0.0
14651 H 16.542844 0.983826 9.530392 H 0.0 **** 0.0
14652 M 17.242513 1.487127 9.672224 M 0.0 **** 0.0
14653 O 38.128712 28.055744 37.600474 O 0.0 **** 0.0
14654 H 37.998053 28.980964 37.808138 H 0.0 **** 0.0
14655 H 37.269005 27.656298 37.73304 H 0.0 **** 0.0
14656 M 38.001933 28.12305 37.644028 M 0.0 **** 0.0
14657 O 5.336155 11.899547 35.06596 O 0.0 **** 0.0
14658 H 5.606383 12.448883 34.330137 H 0.0 **** 0.0
14659 H 5.661237 12.358744 35.840355 H 0.0 **** 0.0
14660 M 5.412362 12.028652 35.070898 M 0.0 **** 0.0
14661 O 40.888295 46.721289 31.462568 O 0.0 **** 0.0
14662 H 40.961073 46.867518 32.405727 H 0.0 **** 0.0
14663 H 40.207041 46.054624 31.374935 H 0.0 **** 0.0
14664 M 40.810403 46.654667 31.572086 M 0.0 **** 0.0
14665 O 31.06791 47.924063 13.519041 O 0.0 **** 0.0
14666 H 30.786974 47.330106 12.822968 H 0.0 **** 0.0
14667 H 30.305373 47.999168 14.092735 H 0.0 **** 0.0
14668 M 30.934333 47.857644 13.503375 M 0.0 **** 0.0
14669 O 0.650689 28.332983 24.515542 O 0.0 **** 0.0
14670 H 1.272868 29.053092 24.412758 H 0.0 **** 0.0
14671 H 1.125846 27.559944 24.210806 H 0.0 **** 0.0
14672 M 0.791162 28.326208 24.463374 M 0.0 **** 0.0
14673 O 37.425354 35.719916 14.938947 O 0.0 **** 0.0
14674 H 37.662235 35.523867 15.845413 H 0.0 **** 0.0
14675 H 36.872112 36.498761 14.998549 H 0.0 **** 0.0
14676 M 37.384856 35.794521 15.062616 M 0.0 **** 0.0
14677 O 0.680794 2.1415 36.731368 O 0.0 **** 0.0
14678 H 0.946152 1.26856 36.441905 H 0.0 **** 0.0
14679 H -0.000313 1.981036 37.384494 H 0.0 **** 0.0
14680 M 0.627573 2.009212 36.777922 M 0.0 **** 0.0
14681 O 12.560269 33.292183 16.616567 O 0.0 **** 0.0
14682 H 13.281448 33.740177 17.058644 H 0.0 **** 0.0
14683 H 12.461604 33.757771 15.786072 H 0.0 **** 0.0
14684 M 12.639959 33.409133 16.566844 M 0.0 **** 0.0
14685 O 33.020941 27.138859 11.101905 O 0.0 **** 0.0
14686 H 32.262675 27.652795 10.82418 H 0.0 **** 0.0
14687 H 33.255627 27.500065 11.956704 H 0.0 **** 0.0
14688 M 32.953916 27.250888 11.175778 M 0.0 **** 0.0
14689 O 36.546817 19.232025 0.948572 O 0.0 **** 0.0
14690 H 36.89859 19.204989 1.838377 H 0.0 **** 0.0
14691 H 37.211314 19.698872 0.44189 H 0.0 **** 0.0
14692 M 36.676913 19.288326 0.997616 M 0.0 **** 0.0
14693 O 47.996704 10.130024 25.989227 O 0.0 **** 0.0
14694 H 47.994599 11.080122 25.872879 H 0.0 **** 0.0
14695 H 47.3171 9.813833 25.393921 H 0.0 **** 0.0
14696 M 47.909437 10.211172 25.898127 M 0.0 **** 0.0
14697 O 19.850552 3.215749 28.922388 O 0.0 **** 0.0
14698 H 18.965342 3.579674 28.908576 H 0.0 **** 0.0
14699 H 19.720535 2.267592 28.904419 H 0.0 **** 0.0
14700 M 19.72059 3.14096 28.918319 M 0.0 **** 0.0
14701 O 41.079954 19.579261 3.784599 O 0.0 **** 0.0
14702 H 40.81983 18.660041 3.844585 H 0.0 **** 0.0
14703 H 40.254185 20.063293 3.791455 H 0.0 **** 0.0
14704 M 40.940946 19.523552 3.793156 M 0.0 **** 0.0
14705 O 28.095518 15.767422 30.028367 O 0.0 **** 0.0
14706 H 27.837109 14.857684 29.880618 H 0.0 **** 0.0
14707 H 27.272427 16.255865 30.015211 H 0.0 **** 0.0
14708 M 27.957072 15.713491 30.007769 M 0.0 **** 0.0
14709 O 17.254437 34.839717 29.785641 O 0.0 **** 0.0
14710 H 17.818975 35.332531 29.190108 H 0.0 **** 0.0
14711 H 17.453253 33.921912 29.600345 H 0.0 **** 0.0
14712 M 17.352156 34.785313 29.685685 M 0.0 **** 0.0
14713 O 36.540018 39.858253 35.406151 O 0.0 **** 0.0
14714 H 37.387238 39.571541 35.747095 H 0.0 **** 0.0
14715 H 36.758706 40.439754 34.677961 H 0.0 **** 0.0
14716 M 36.676468 39.895989 35.356578 M 0.0 **** 0.0
14717 O 27.174243 1.816606 30.042473 O 0.0 **** 0.0
14718 H 28.089366 1.547913 30.123614 H 0.0 **** 0.0
14719 H 27.206936 2.772643 30.008522 H 0.0 **** 0.0
14720 M 27.295575 1.904595 30.048514 M 0.0 **** 0.0
14721 O 5.93839 45.738494 18.133481 O 0.0 **** 0.0
14722 H 5.159976 45.831403 18.682723 H 0.0 **** 0.0
14723 H 6.096793 44.795112 18.099312 H 0.0 **** 0.0
14724 M 5.859021 45.629623 18.199417 M 0.0 **** 0.0
14725 O 29.821219 11.604884 5.1811 O 0.0 **** 0.0
14726 H 29.43998 11.512946 4.307926 H 0.0 **** 0.0
14727 H 29.339523 12.330553 5.578091 H 0.0 **** 0.0
14728 M 29.710752 11.686009 5.120142 M 0.0 **** 0.0
14729 O 31.953577 7.718461 7.813199 O 0.0 **** 0.0
14730 H 31.575813 8.052441 6.999578 H 0.0 **** 0.0
14731 H 32.42649 8.464412 8.182169 H 0.0 **** 0.0
14732 M 31.965757 7.856706 7.756278 M 0.0 **** 0.0
14733 O 33.600857 6.609737 0.572959 O 0.0 **** 0.0
14734 H 33.187236 5.962242 0.002086 H 0.0 **** 0.0
14735 H 34.208086 7.080168 0.001822 H 0.0 **** 0.0
14736 M 33.625641 6.587071 0.426767 M 0.0 **** 0.0
14737 O 19.769633 21.164002 3.432876 O 0.0 **** 0.0
14738 H 20.410382 21.034216 4.132036 H 0.0 **** 0.0
14739 H 20.183784 21.792394 2.841411 H 0.0 **** 0.0
14740 M 19.904673 21.22783 3.446663 M 0.0 **** 0.0
14741 O 36.846943 9.843412 35.365477 O 0.0 **** 0.0
14742 H 35.986105 9.540305 35.076837 H 0.0 **** 0.0
14743 H 36.673316 10.323174 36.17536 H 0.0 **** 0.0
14744 M 36.714518 9.866026 35.432202 M 0.0 **** 0.0
14745 O 7.313991 22.86169 33.83546 O 0.0 **** 0.0
14746 H 6.921773 23.73048 33.922635 H 0.0 **** 0.0
14747 H 6.811909 22.31039 34.435635 H 0.0 **** 0.0
14748 M 7.199509 22.902333 33.923449 M 0.0 **** 0.0
14749 O 30.050482 17.687473 31.021871 O 0.0 **** 0.0
14750 H 29.616655 18.512066 31.24112 H 0.0 **** 0.0
14751 H 30.981413 17.86182 31.160434 H 0.0 **** 0.0
14752 M 30.114118 17.81535 31.067676 M 0.0 **** 0.0
14753 O 17.67985 30.225276 29.229418 O 0.0 **** 0.0
14754 H 16.743567 30.06141 29.342337 H 0.0 **** 0.0
14755 H 18.076455 29.354166 29.219421 H 0.0 **** 0.0
14756 M 17.610764 30.092786 29.242593 M 0.0 **** 0.0
14757 O 33.386703 21.637925 43.668254 O 0.0 **** 0.0
14758 H 32.976696 21.045849 44.298785 H 0.0 **** 0.0
14759 H 34.201043 21.199418 43.421697 H 0.0 **** 0.0
14760 M 33.438462 21.505997 43.717407 M 0.0 **** 0.0
14761 O 34.534845 20.940635 45.846581 O 0.0 **** 0.0
14762 H 34.683969 20.138464 45.346069 H 0.0 **** 0.0
14763 H 35.337403 21.449059 45.729812 H 0.0 **** 0.0
14764 M 34.656672 20.903032 45.767561 M 0.0 **** 0.0
14765 O 38.444721 32.422965 6.293972 O 0.0 **** 0.0
14766 H 39.347513 32.117644 6.383264 H 0.0 **** 0.0
14767 H 37.932112 31.623888 6.171754 H 0.0 **** 0.0
14768 M 38.494669 32.281588 6.289757 M 0.0 **** 0.0
14769 O 10.093119 2.745033 24.17303 O 0.0 **** 0.0
14770 H 10.475294 2.692159 23.297031 H 0.0 **** 0.0
14771 H 9.726867 1.874366 24.328032 H 0.0 **** 0.0
14772 M 10.095157 2.626808 24.080733 M 0.0 **** 0.0
14773 O 12.574578 28.000899 14.635579 O 0.0 **** 0.0
14774 H 12.164763 27.496488 13.932833 H 0.0 **** 0.0
14775 H 13.018785 28.720394 14.186987 H 0.0 **** 0.0
14776 M 12.57898 28.028432 14.488193 M 0.0 **** 0.0
14777 O 6.862177 41.368672 27.612886 O 0.0 **** 0.0
14778 H 7.441185 41.860295 27.030403 H 0.0 **** 0.0
14779 H 6.591043 42.004854 28.274692 H 0.0 **** 0.0
14780 M 6.901589 41.513045 27.62304 M 0.0 **** 0.0
14781 O 38.414321 11.504831 43.206294 O 0.0 **** 0.0
14782 H 38.905651 12.224734 42.810612 H 0.0 **** 0.0
14783 H 37.503963 11.673523 42.963354 H 0.0 **** 0.0
14784 M 38.36068 11.618582 43.124542 M 0.0 **** 0.0
14785 O 17.417357 11.405691 37.869439 O 0.0 **** 0.0
14786 H 17.548856 12.34843 37.97034 H 0.0 **** 0.0
14787 H 18.237465 11.088067 37.491594 H 0.0 **** 0.0
14788 M 17.539175 11.485714 37.833987 M 0.0 **** 0.0
14789 O 32.951886 27.587394 28.743504 O 0.0 **** 0.0
14790 H 32.51978 27.836752 29.560409 H 0.0 **** 0.0
14791 H 33.017004 26.633448 28.787932 H 0.0 **** 0.0
14792 M 32.904907 27.497198 28.853766 M 0.0 **** 0.0
14793 O 22.859687 30.119735 27.997578 O 0.0 **** 0.0
14794 H 22.101933 30.704574 27.99688 H 0.0 **** 0.0
14795 H 22.484548 29.24096 28.054619 H 0.0 **** 0.0
14796 M 22.714663 30.082107 28.00479 M 0.0 **** 0.0
14797 O 31.166354 10.237522 26.825578 O 0.0 **** 0.0
14798 H 30.933781 9.310366 26.87579 H 0.0 **** 0.0
14799 H 30.339405 10.700076 26.961326 H 0.0 **** 0.0
14800 M 31.030722 10.178047 26.849383 M 0.0 **** 0.0
14801 O 31.654907 13.230514 47.66091 O 0.0 **** 0.0
14802 H 30.700393 13.30116 47.648971 H 0.0 **** 0.0
14803 H 31.889971 13.002813 46.761396 H 0.0 **** 0.0
14804 M 31.562808 13.210409 47.544233 M 0.0 **** 0.0
14805 O -0.001359 33.492695 16.308258 O 0.0 **** 0.0
14806 H 0.839302 33.459489 15.851732 H 0.0 **** 0.0
14807 H 0.210443 33.27922 17.216991 H 0.0 **** 0.0
14808 M 0.13337 33.461117 16.366146 M 0.0 **** 0.0
14809 O 30.202341 25.935452 19.408277 O 0.0 **** 0.0
14810 H 31.077439 26.048098 19.037139 H 0.0 **** 0.0
14811 H 30.156666 26.579423 20.114991 H 0.0 **** 0.0
14812 M 30.308517 26.032309 19.451235 M 0.0 **** 0.0
14813 O 0.999237 16.229245 37.551474 O 0.0 **** 0.0
14814 H 0.330462 16.350229 36.877433 H 0.0 **** 0.0
14815 H 1.062909 17.081724 37.982118 H 0.0 **** 0.0
14816 M 0.921776 16.353861 37.520316 M 0.0 **** 0.0
14817 O 23.46602 38.997544 4.65157 O 0.0 **** 0.0
14818 H 24.349181 38.687037 4.851173 H 0.0 **** 0.0
14819 H 23.548498 39.950604 4.618367 H 0.0 **** 0.0
14820 M 23.589634 39.079799 4.672871 M 0.0 **** 0.0
14821 O 41.780563 13.39965 29.118489 O 0.0 **** 0.0
14822 H 41.667913 12.449328 29.139133 H 0.0 **** 0.0
14823 H 42.727699 13.527976 29.066585 H 0.0 **** 0.0
14824 M 41.887388 13.294424 29.114487 M 0.0 **** 0.0
14825 O 21.522484 6.057987 39.908665 O 0.0 **** 0.0
14826 H 22.309202 6.567779 39.715232 H 0.0 **** 0.0
14827 H 21.51955 5.973686 40.86214 H 0.0 **** 0.0
14828 M 21.622818 6.112455 40.00596 M 0.0 **** 0.0
14829 O 7.038451 36.857285 13.884889 O 0.0 **** 0.0
14830 H 7.184541 36.146484 13.260671 H 0.0 **** 0.0
14831 H 7.896468 37.269881 13.98388 H 0.0 **** 0.0
14832 M 7.166989 36.819111 13.817654 M 0.0 **** 0.0
14833 O 2.234065 25.817501 22.88908 O 0.0 **** 0.0
14834 H 2.041344 26.638395 22.436067 H 0.0 **** 0.0
14835 H 3.16726 25.87059 23.095372 H 0.0 **** 0.0
14836 M 2.328855 25.929382 22.857496 M 0.0 **** 0.0
14837 O 18.830725 15.977533 38.480412 O 0.0 **** 0.0
14838 H 19.190462 15.269808 37.945674 H 0.0 **** 0.0
14839 H 19.452641 16.697554 38.375439 H 0.0 **** 0.0
14840 M 18.956389 15.979107 38.398521 M 0.0 **** 0.0
14841 O 46.673214 8.08078 23.394753 O 0.0 **** 0.0
14842 H 47.242693 7.313576 23.452387 H 0.0 **** 0.0
14843 H 47.271579 8.827043 23.430525 H 0.0 **** 0.0
14844 M 46.822713 8.078099 23.40671 M 0.0 **** 0.0
14845 O 38.406231 9.179833 25.032843 O 0.0 **** 0.0
14846 H 37.991834 9.998859 24.761364 H 0.0 **** 0.0
14847 H 39.16603 9.454018 25.546416 H 0.0 **** 0.0
14848 M 38.450447 9.319778 25.063834 M 0.0 **** 0.0
14849 O 35.269847 25.098653 21.813475 O 0.0 **** 0.0
14850 H 35.115106 25.716561 21.099001 H 0.0 **** 0.0
14851 H 36.065311 24.631264 21.558496 H 0.0 **** 0.0
14852 M 35.351868 25.117921 21.689373 M 0.0 **** 0.0
14853 O 28.926294 41.748216 6.986014 O 0.0 **** 0.0
14854 H 29.837108 41.993166 6.822778 H 0.0 **** 0.0
14855 H 28.964087 40.817924 7.208177 H 0.0 **** 0.0
14856 M 29.047728 41.660484 6.993557 M 0.0 **** 0.0
14857 O 12.31085 30.023271 23.048355 O 0.0 **** 0.0
14858 H 12.141461 30.086609 22.108395 H 0.0 **** 0.0
14859 H 11.811452 29.257194 23.331121 H 0.0 **** 0.0
14860 M 12.225237 29.933312 22.964226 M 0.0 **** 0.0
14861 O 4.292364 43.007648 43.997192 O 0.0 **** 0.0
14862 H 3.847211 42.729368 44.797583 H 0.0 **** 0.0
14863 H 4.317676 42.22193 43.451083 H 0.0 **** 0.0
14864 M 4.238619 42.871443 44.029743 M 0.0 **** 0.0
14865 O 25.031465 35.613946 46.443135 O 0.0 **** 0.0
14866 H 25.478904 36.211895 45.844399 H 0.0 **** 0.0
14867 H 24.72016 34.902443 45.883598 H 0.0 **** 0.0
14868 M 25.048892 35.599409 46.294861 M 0.0 **** 0.0
14869 O 40.199502 39.459287 24.801113 O 0.0 **** 0.0
14870 H 40.330567 40.402969 24.708837 H 0.0 **** 0.0
14871 H 39.258142 39.36054 24.943659 H 0.0 **** 0.0
14872 M 40.095774 39.567449 24.807549 M 0.0 **** 0.0
14873 O 39.998716 25.051805 8.512424 O 0.0 **** 0.0
14874 H 40.181277 25.964096 8.737426 H 0.0 **** 0.0
14875 H 39.259169 25.097451 7.90644 H 0.0 **** 0.0
14876 M 39.927415 25.174433 8.463653 M 0.0 **** 0.0
14877 O 16.528005 25.355546 15.203161 O 0.0 **** 0.0
14878 H 15.621982 25.108601 15.01777 H 0.0 **** 0.0
14879 H 16.771203 24.824301 15.961358 H 0.0 **** 0.0
14880 M 16.443155 25.255928 15.276488 M 0.0 **** 0.0
14881 O 34.951417 33.798685 1.300886 O 0.0 **** 0.0
14882 H 34.468931 32.988734 1.466459 H 0.0 **** 0.0
14883 H 35.642276 33.806189 1.963371 H 0.0 **** 0.0
14884 M 34.978092 33.695961 1.406887 M 0.0 **** 0.0
14885 O 1.313403 30.998247 30.780468 O 0.0 **** 0.0
14886 H 1.138745 30.15884 31.206048 H 0.0 **** 0.0
14887 H 2.204262 30.914216 30.440558 H 0.0 **** 0.0
14888 M 1.405086 30.880035 30.791435 M 0.0 **** 0.0
14889 O 45.685653 2.445941 42.228838 O 0.0 **** 0.0
14890 H 44.742137 2.372763 42.372546 H 0.0 **** 0.0
14891 H 45.801605 3.308781 41.830981 H 0.0 **** 0.0
14892 M 45.579714 2.547027 42.196304 M 0.0 **** 0.0
14893 O 36.904509 32.217459 42.163544 O 0.0 **** 0.0
14894 H 36.713345 31.296655 41.985205 H 0.0 **** 0.0
14895 H 37.590808 32.195294 42.830426 H 0.0 **** 0.0
14896 M 36.967892 32.096747 42.226084 M 0.0 **** 0.0
14897 O 34.211878 11.459146 39.258918 O 0.0 **** 0.0
14898 H 34.650294 10.718973 38.839198 H 0.0 **** 0.0
14899 H 33.299395 11.387935 38.978682 H 0.0 **** 0.0
14900 M 34.151192 11.355278 39.169315 M 0.0 **** 0.0
14901 O 37.503401 12.711189 26.578665 O 0.0 **** 0.0
14902 H 37.673791 11.797491 26.349859 H 0.0 **** 0.0
14903 H 38.334142 13.158152 26.416428 H 0.0 **** 0.0
14904 M 37.631558 12.651441 26.528606 M 0.0 **** 0.0
14905 O 35.647343 4.288868 3.223556 O 0.0 **** 0.0
14906 H 36.41426 4.816313 3.446872 H 0.0 **** 0.0
14907 H 34.956201 4.614012 3.800472 H 0.0 **** 0.0
14908 M 35.657044 4.39801 3.325996 M 0.0 **** 0.0
14909 O 22.361778 8.515257 38.187495 O 0.0 **** 0.0
14910 H 21.542301 8.990868 38.051557 H 0.0 **** 0.0
14911 H 22.296347 7.75453 37.610224 H 0.0 **** 0.0
14912 M 22.248499 8.478758 38.096195 M 0.0 **** 0.0
14913 O 22.615353 1.369912 36.116158 O 0.0 **** 0.0
14914 H 22.195385 0.510695 36.076124 H 0.0 **** 0.0
14915 H 21.975577 1.929467 36.556399 H 0.0 **** 0.0
14916 M 22.479693 1.331551 36.167389 M 0.0 **** 0.0
14917 O 14.978286 0.015315 35.792046 O 0.0 **** 0.0
14918 H 14.073033 0.002151 36.102807 H 0.0 **** 0.0
14919 H 15.171418 0.942714 35.654716 H 0.0 **** 0.0
14920 M 14.887126 0.132348 35.814248 M 0.0 **** 0.0
14921 O 35.56552 37.345631 35.081502 O 0.0 **** 0.0
14922 H 35.079197 36.557872 34.838284 H 0.0 **** 0.0
14923 H 35.175334 37.622115 35.910682 H 0.0 **** 0.0
14924 M 35.453316 37.280181 35.156512 M 0.0 **** 0.0
14925 O 43.481484 6.692353 17.680519 O 0.0 **** 0.0
14926 H 44.420755 6.75767 17.508088 H 0.0 **** 0.0
14927 H 43.235799 7.559489 18.002922 H 0.0 **** 0.0
14928 M 43.570272 6.811719 17.699718 M 0.0 **** 0.0
14929 O 17.482898 45.678916 36.312769 O 0.0 **** 0.0
14930 H 18.423717 45.853786 36.290188 H 0.0 **** 0.0
14931 H 17.403494 44.759605 36.058227 H 0.0 **** 0.0
14932 M 17.59317 45.583618 36.277294 M 0.0 **** 0.0
14933 O 25.464557 26.243513 33.650521 O 0.0 **** 0.0
14934 H 25.701564 25.392598 34.019304 H 0.0 **** 0.0
14935 H 24.539412 26.351429 33.871178 H 0.0 **** 0.0
14936 M 25.376467 26.1484 33.725977 M 0.0 **** 0.0
14937 O 34.630902 13.608815 7.968392 O 0.0 **** 0.0
14938 H 34.443251 14.52106 7.747427 H 0.0 **** 0.0
14939 H 34.367591 13.524814 8.88482 H 0.0 **** 0.0
14940 M 34.573173 13.71484 8.05742 M 0.0 **** 0.0
14941 O 6.472824 34.132045 2.501903 O 0.0 **** 0.0
14942 H 5.57014 34.291043 2.226024 H 0.0 **** 0.0
14943 H 6.587131 34.681562 3.27727 H 0.0 **** 0.0
14944 M 6.371902 34.222744 2.565844 M 0.0 **** 0.0
14945 O 46.9167 27.493727 15.427222 O 0.0 **** 0.0
14946 H 46.0841 27.021798 15.444242 H 0.0 **** 0.0
14947 H 47.173018 27.495022 14.504981 H 0.0 **** 0.0
14948 M 46.842929 27.43348 15.311343 M 0.0 **** 0.0
14949 O 12.625991 20.517823 37.223041 O 0.0 **** 0.0
14950 H 11.951802 21.162774 37.009181 H 0.0 **** 0.0
14951 H 12.14545 19.698437 37.341013 H 0.0 **** 0.0
14952 M 12.478171 20.495493 37.210766 M 0.0 **** 0.0
14953 O 16.306707 15.315322 16.467362 O 0.0 **** 0.0
14954 H 16.442792 16.254933 16.345533 H 0.0 **** 0.0
14955 H 16.796979 14.907295 15.753656 H 0.0 **** 0.0
14956 M 16.386889 15.383372 16.360403 M 0.0 **** 0.0
14957 O 5.640287 33.843851 37.880423 O 0.0 **** 0.0
14958 H 6.57577 33.645433 37.838807 H 0.0 **** 0.0
14959 H 5.213821 32.987101 37.89871 H 0.0 **** 0.0
14960 M 5.705448 33.708776 37.877437 M 0.0 **** 0.0
14961 O 33.972086 14.418932 33.489741 O 0.0 **** 0.0
14962 H 33.422996 15.087988 33.89851 H 0.0 **** 0.0
14963 H 34.796105 14.455102 33.97545 H 0.0 **** 0.0
14964 M 34.00728 14.50921 33.604245 M 0.0 **** 0.0
14965 O 5.909951 20.497937 12.326669 O 0.0 **** 0.0
14966 H 5.861043 19.603139 12.663081 H 0.0 **** 0.0
14967 H 5.353011 21.006654 12.915952 H 0.0 **** 0.0
14968 M 5.832395 20.448514 12.445169 M 0.0 **** 0.0
14969 O 14.667026 14.692794 9.167222 O 0.0 **** 0.0
14970 H 14.624103 13.777167 9.442927 H 0.0 **** 0.0
14971 H 15.152772 14.67263 8.342678 H 0.0 **** 0.0
14972 M 14.723713 14.573001 9.096964 M 0.0 **** 0.0
14973 O 3.327922 9.011091 29.825488 O 0.0 **** 0.0
14974 H 2.8995 9.854346 29.972478 H 0.0 **** 0.0
14975 H 4.263808 9.211264 29.842085 H 0.0 **** 0.0
14976 M 3.392884 9.144663 29.846429 M 0.0 **** 0.0
14977 O 13.866697 28.849026 24.509494 O 0.0 **** 0.0
14978 H 13.717613 29.539316 25.155638 H 0.0 **** 0.0
14979 H 14.563363 29.19111 23.949258 H 0.0 **** 0.0
14980 M 13.936795 28.981183 24.520491 M 0.0 **** 0.0
14981 O 10.418071 9.690519 25.557664 O 0.0 **** 0.0
14982 H 10.792955 10.364499 26.124622 H 0.0 **** 0.0
14983 H 9.755526 10.151241 25.042885 H 0.0 **** 0.0
14984 M 10.381247 9.835775 25.564343 M 0.0 **** 0.0
14985 O 11.362686 34.031016 2.679982 O 0.0 **** 0.0
14986 H 12.300831 34.173438 2.554176 H 0.0 **** 0.0
14987 H 10.944299 34.729714 2.176989 H 0.0 **** 0.0
14988 M 11.429221 34.13869 2.599488 M 0.0 **** 0.0
14989 O 8.378021 1.560785 40.97944 O 0.0 **** 0.0
14990 H 7.697011 0.889127 40.942979 H 0.0 **** 0.0
14991 H 8.818656 1.50205 40.131726 H 0.0 **** 0.0
14992 M 8.34725 1.467286 40.866255 M 0.0 **** 0.0
14993 O 44.808615 11.667313 28.753925 O 0.0 **** 0.0
14994 H 45.184055 10.903172 29.191374 H 0.0 **** 0.0
14995 H 43.912853 11.40579 28.540748 H 0.0 **** 0.0
14996 M 44.742007 11.536015 28.782635 M 0.0 **** 0.0
14997 O 7.879374 28.310758 16.099152 O 0.0 **** 0.0
14998 H 8.534011 29.008237 16.064481 H 0.0 **** 0.0
14999 H 7.258771 28.52933 15.403949 H 0.0 **** 0.0
15000 M 7.88373 28.428024 16.005719 M 0.0 **** 0.0
15001 O 38.179703 30.207678 40.760616 O 0.0 **** 0.0
15002 H 39.092695 29.920148 40.761778 H 0.0 **** 0.0
15003 H 37.672451 29.395937 40.760618 H 0.0 **** 0.0
15004 M 38.231643 30.066958 40.760765 M 0.0 **** 0.0
15005 O 4.839938 20.774656 22.78645 O 0.0 **** 0.0
15006 H 4.12953 20.822178 23.426209 H 0.0 **** 0.0
15007 H 4.588984 21.395609 22.102588 H 0.0 **** 0.0
15008 M 4.716872 20.860229 22.780805 M 0.0 **** 0.0
15009 O 0.026263 43.540119 10.525842 O 0.0 **** 0.0
15010 H 0.115983 42.726974 10.028877 H 0.0 **** 0.0
15011 H 0.517756 43.384007 11.33225 H 0.0 **** 0.0
15012 M 0.100665 43.416042 10.565455 M 0.0 **** 0.0
15013 O 44.699541 38.442619 20.104279 O 0.0 **** 0.0
15014 H 43.959093 38.227605 20.671495 H 0.0 **** 0.0
15015 H 45.156376 39.147724 20.562926 H 0.0 **** 0.0
15016 M 44.663235 38.505357 20.235602 M 0.0 **** 0.0
15017 O 44.44844 17.977502 14.694532 O 0.0 **** 0.0
15018 H 44.554303 18.818774 14.250367 H 0.0 **** 0.0
15019 H 45.154885 17.956368 15.340069 H 0.0 **** 0.0
15020 M 44.552426 18.08249 14.72031 M 0.0 **** 0.0
15021 O 10.713762 31.484644 6.163221 O 0.0 **** 0.0
15022 H 11.394694 30.838549 6.350626 H 0.0 **** 0.0
15023 H 9.904291 30.975372 6.122872 H 0.0 **** 0.0
15024 M 10.697307 31.336742 6.182046 M 0.0 **** 0.0
15025 O 25.260433 40.582753 29.148995 O 0.0 **** 0.0
15026 H 25.519582 39.832068 29.683357 H 0.0 **** 0.0
15027 H 26.087333 40.965646 28.855979 H 0.0 **** 0.0
15028 M 25.399461 40.535671 29.17989 M 0.0 **** 0.0
15029 O 12.914166 9.05114 45.707057 O 0.0 **** 0.0
15030 H 13.471298 9.800935 45.498155 H 0.0 **** 0.0
15031 H 12.043571 9.427559 45.83591 H 0.0 **** 0.0
15032 M 12.874039 9.19531 45.696809 M 0.0 **** 0.0
15033 O 17.645882 1.563328 2.903101 O 0.0 **** 0.0
15034 H 17.698454 2.518448 2.937884 H 0.0 **** 0.0
15035 H 18.503327 1.287415 2.579235 H 0.0 **** 0.0
15036 M 17.762376 1.650275 2.866094 M 0.0 **** 0.0
15037 O 15.109416 28.034079 38.952556 O 0.0 **** 0.0
15038 H 15.425917 27.159996 39.180669 H 0.0 **** 0.0
15039 H 14.669465 27.917816 38.110442 H 0.0 **** 0.0
15040 M 15.093613 27.907302 38.873956 M 0.0 **** 0.0
15041 O 26.219051 12.456841 2.831621 O 0.0 **** 0.0
15042 H 25.972886 13.33527 2.541803 H 0.0 **** 0.0
15043 H 25.465926 12.151059 3.33712 H 0.0 **** 0.0
15044 M 26.091129 12.530147 2.859231 M 0.0 **** 0.0
15045 O 43.102582 9.604519 7.784953 O 0.0 **** 0.0
15046 H 42.645376 10.321837 7.346038 H 0.0 **** 0.0
15047 H 42.410396 9.114995 8.229332 H 0.0 **** 0.0
15048 M 42.955446 9.63368 7.785652 M 0.0 **** 0.0
15049 O 6.763661 36.017841 34.314603 O 0.0 **** 0.0
15050 H 6.809314 35.163332 33.885698 H 0.0 **** 0.0
15051 H 5.906837 36.365254 34.06684 H 0.0 **** 0.0
15052 M 6.659821 35.952926 34.227981 M 0.0 **** 0.0
15053 O 43.16357 39.019692 28.837009 O 0.0 **** 0.0
15054 H 43.768648 39.390411 28.19461 H 0.0 **** 0.0
15055 H 43.066486 39.704719 29.498478 H 0.0 **** 0.0
15056 M 43.2286 39.154841 28.83945 M 0.0 **** 0.0
15057 O 40.538766 12.21256 24.775712 O 0.0 **** 0.0
15058 H 40.632055 12.21001 23.823074 H 0.0 **** 0.0
15059 H 40.471637 13.138767 25.007798 H 0.0 **** 0.0
15060 M 40.542115 12.3308 24.683473 M 0.0 **** 0.0
15061 O 26.785259 47.618426 34.305955 O 0.0 **** 0.0
15062 H 27.338178 46.974455 34.74846 H 0.0 **** 0.0
15063 H 25.978026 47.635327 34.820074 H 0.0 **** 0.0
15064 M 26.752704 47.538153 34.428415 M 0.0 **** 0.0
15065 O 44.651728 4.377744 47.250204 O 0.0 **** 0.0
15066 H 45.475982 4.762484 46.952197 H 0.0 **** 0.0
15067 H 44.761369 3.437229 47.110061 H 0.0 **** 0.0
15068 M 44.771278 4.306598 47.194115 M 0.0 **** 0.0
15069 O 42.369351 2.35602 2.836098 O 0.0 **** 0.0
15070 H 42.101884 1.43832 2.886254 H 0.0 **** 0.0
15071 H 42.431648 2.638059 3.748677 H 0.0 **** 0.0
15072 M 42.343087 2.274647 2.95934 M 0.0 **** 0.0
15073 O 35.421505 36.549061 41.198645 O 0.0 **** 0.0
15074 H 35.116225 37.246821 41.778441 H 0.0 **** 0.0
15075 H 36.112701 36.956189 40.676414 H 0.0 **** 0.0
15076 M 35.470907 36.6905 41.206014 M 0.0 **** 0.0
15077 O 22.595127 8.410382 46.695723 O 0.0 **** 0.0
15078 H 23.479981 8.064214 46.811615 H 0.0 **** 0.0
15079 H 22.718358 9.353769 46.590541 H 0.0 **** 0.0
15080 M 22.724175 8.486834 46.697094 M 0.0 **** 0.0
15081 O 9.756949 21.556684 3.769993 O 0.0 **** 0.0
15082 H 10.075987 22.450649 3.893569 H 0.0 **** 0.0
15083 H 9.152615 21.414678 4.498583 H 0.0 **** 0.0
15084 M 9.720428 21.652944 3.879081 M 0.0 **** 0.0
15085 O 40.969378 20.067644 45.838761 O 0.0 **** 0.0
15086 H 40.316812 20.671869 46.192737 H 0.0 **** 0.0
15087 H 40.487903 19.541449 45.20038 H 0.0 **** 0.0
15088 M 40.824206 20.077633 45.802354 M 0.0 **** 0.0
15089 O 0.832837 28.608044 4.043077 O 0.0 **** 0.0
15090 H 1.668608 28.141768 4.060481 H 0.0 **** 0.0
15091 H 0.17271 27.916006 4.003792 H 0.0 **** 0.0
15092 M 0.855322 28.459765 4.040276 M 0.0 **** 0.0
15093 O 33.953255 30.133532 29.503643 O 0.0 **** 0.0
15094 H 34.273115 29.2824 29.204489 H 0.0 **** 0.0
15095 H 33.032748 29.982134 29.718062 H 0.0 **** 0.0
15096 M 33.876364 30.005196 29.492796 M 0.0 **** 0.0
15097 O 11.587053 4.537778 15.290241 O 0.0 **** 0.0
15098 H 12.138087 5.140246 15.789864 H 0.0 **** 0.0
15099 H 11.112909 5.098979 14.67667 H 0.0 **** 0.0
15100 M 11.596896 4.686742 15.275654 M 0.0 **** 0.0
15101 O 25.195546 33.675801 24.483735 O 0.0 **** 0.0
15102 H 24.513615 34.315412 24.278558 H 0.0 **** 0.0
15103 H 25.230711 33.107354 23.714411 H 0.0 **** 0.0
15104 M 25.112752 33.684911 24.358986 M 0.0 **** 0.0
15105 O 9.235214 21.89968 36.799545 O 0.0 **** 0.0
15106 H 8.98807 21.972927 35.877708 H 0.0 **** 0.0
15107 H 9.970024 22.504848 36.899824 H 0.0 **** 0.0
15108 M 9.297641 21.986526 36.694375 M 0.0 **** 0.0
15109 O 26.830593 17.272103 17.87898 O 0.0 **** 0.0
15110 H 27.638544 16.759049 17.893753 H 0.0 **** 0.0
15111 H 26.485177 17.150428 16.994609 H 0.0 **** 0.0
15112 M 26.889803 17.19085 17.76766 M 0.0 **** 0.0
15113 O 27.545977 28.701102 7.378422 O 0.0 **** 0.0
15114 H 26.89499 28.013199 7.239731 H 0.0 **** 0.0
15115 H 27.03023 29.484976 7.567566 H 0.0 **** 0.0
15116 M 27.39662 28.713388 7.38488 M 0.0 **** 0.0
15117 O 1.40947 38.728112 46.319769 O 0.0 **** 0.0
15118 H 1.820775 39.539214 46.618383 H 0.0 **** 0.0
15119 H 0.596765 38.671983 46.822352 H 0.0 **** 0.0
15120 M 1.358085 38.824758 46.422332 M 0.0 **** 0.0
15121 O 37.279996 15.75856 23.642138 O 0.0 **** 0.0
15122 H 37.22284 16.008101 22.719808 H 0.0 **** 0.0
15123 H 36.479217 15.260452 23.806058 H 0.0 **** 0.0
15124 M 37.17017 15.72674 23.545052 M 0.0 **** 0.0
15125 O 31.521018 29.593146 11.903944 O 0.0 **** 0.0
15126 H 31.764806 29.781769 10.997734 H 0.0 **** 0.0
15127 H 32.25349 29.924529 12.423462 H 0.0 **** 0.0
15128 M 31.645991 29.659713 11.854443 M 0.0 **** 0.0
15129 O 37.514213 46.180232 32.025793 O 0.0 **** 0.0
15130 H 37.276118 45.373844 31.568324 H 0.0 **** 0.0
15131 H 37.921343 46.726382 31.353339 H 0.0 **** 0.0
15132 M 37.535852 46.146918 31.881148 M 0.0 **** 0.0
15133 O 42.486473 3.358156 20.79437 O 0.0 **** 0.0
15134 H 42.554835 2.801895 20.0184 H 0.0 **** 0.0
15135 H 42.742154 4.228555 20.488981 H 0.0 **** 0.0
15136 M 42.527955 3.398369 20.655942 M 0.0 **** 0.0
15137 O 14.696033 36.308467 16.055259 O 0.0 **** 0.0
15138 H 13.801926 36.618621 15.911712 H 0.0 **** 0.0
15139 H 14.59773 35.378085 16.25763 H 0.0 **** 0.0
15140 M 14.568992 36.22907 16.062789 M 0.0 **** 0.0
15141 O 26.095099 28.299397 4.471215 O 0.0 **** 0.0
15142 H 26.851419 28.185327 5.046712 H 0.0 **** 0.0
15143 H 25.913246 27.421088 4.136953 H 0.0 **** 0.0
15144 M 26.168638 28.17236 4.502096 M 0.0 **** 0.0
15145 O 6.312323 27.723051 12.778254 O 0.0 **** 0.0
15146 H 6.763182 27.30427 12.045057 H 0.0 **** 0.0
15147 H 5.698102 28.330952 12.366651 H 0.0 **** 0.0
15148 M 6.291411 27.747261 12.631705 M 0.0 **** 0.0
15149 O 24.128075 23.567609 35.244076 O 0.0 **** 0.0
15150 H 23.375943 23.440231 35.822264 H 0.0 **** 0.0
15151 H 24.036741 22.886381 34.577881 H 0.0 **** 0.0
15152 M 24.0201 23.464097 35.23281 M 0.0 **** 0.0
15153 O 44.300544 41.724367 14.825751 O 0.0 **** 0.0
15154 H 43.779379 41.660642 15.626098 H 0.0 **** 0.0
15155 H 44.196743 40.871756 14.403248 H 0.0 **** 0.0
15156 M 44.22054 41.607065 14.87412 M 0.0 **** 0.0
15157 O 22.646518 6.780874 44.474316 O 0.0 **** 0.0
15158 H 22.369622 6.092815 45.079405 H 0.0 **** 0.0
15159 H 23.310778 6.364468 43.925142 H 0.0 **** 0.0
15160 M 22.696105 6.639489 44.481474 M 0.0 **** 0.0
15161 O 37.503578 26.125577 36.10793 O 0.0 **** 0.0
15162 H 37.441653 26.922947 35.582007 H 0.0 **** 0.0
15163 H 38.37207 26.168825 36.50803 H 0.0 **** 0.0
15164 M 37.606828 26.233187 36.091823 M 0.0 **** 0.0
15165 O 21.925108 15.691997 32.099802 O 0.0 **** 0.0
15166 H 21.243788 16.008722 31.506745 H 0.0 **** 0.0
15167 H 21.501985 15.663314 32.957924 H 0.0 **** 0.0
15168 M 21.783725 15.72887 32.133734 M 0.0 **** 0.0
15169 O 46.611202 21.474097 15.528497 O 0.0 **** 0.0
15170 H 46.377294 21.948555 14.730747 H 0.0 **** 0.0
15171 H 47.563836 21.550287 15.582447 H 0.0 **** 0.0
15172 M 46.703208 21.544587 15.433282 M 0.0 **** 0.0
15173 O 33.221067 19.99032 32.798899 O 0.0 **** 0.0
15174 H 32.786352 19.453624 32.13617 H 0.0 **** 0.0
15175 H 32.533982 20.570968 33.125991 H 0.0 **** 0.0
15176 M 33.077463 19.995946 32.755933 M 0.0 **** 0.0
15177 O 17.888843 19.581383 1.295793 O 0.0 **** 0.0
15178 H 17.295581 20.027345 1.900266 H 0.0 **** 0.0
15179 H 17.351378 19.394595 0.526072 H 0.0 **** 0.0
15180 M 17.744096 19.614561 1.274639 M 0.0 **** 0.0
15181 O 4.849425 42.471096 6.196355 O 0.0 **** 0.0
15182 H 4.598617 41.611722 5.857534 H 0.0 **** 0.0
15183 H 5.036437 42.318624 7.122642 H 0.0 **** 0.0
15184 M 4.841259 42.341567 6.271558 M 0.0 **** 0.0
15185 O 29.310977 4.523079 47.318227 O 0.0 **** 0.0
15186 H 29.669456 4.069446 48.081076 H 0.0 **** 0.0
15187 H 29.811534 5.337296 47.266052 H 0.0 **** 0.0
15188 M 29.420944 4.569238 47.409202 M 0.0 **** 0.0
15189 O 18.92451 5.429837 47.907372 O 0.0 **** 0.0
15190 H 18.80501 6.370026 48.041509 H 0.0 **** 0.0
15191 H 19.821737 5.34558 47.584708 H 0.0 **** 0.0
15192 M 19.024069 5.539407 47.883238 M 0.0 **** 0.0
15193 O 42.513602 32.252839 36.17573 O 0.0 **** 0.0
15194 H 43.115121 32.5618 36.853186 H 0.0 **** 0.0
15195 H 43.080079 31.851842 35.516539 H 0.0 **** 0.0
15196 M 42.66312 32.241057 36.178068 M 0.0 **** 0.0
15197 O 3.974539 35.12732 34.114837 O 0.0 **** 0.0
15198 H 4.23701 35.297717 35.019437 H 0.0 **** 0.0
15199 H 4.447102 34.330548 33.873864 H 0.0 **** 0.0
15200 M 4.068633 35.047136 34.199789 M 0.0 **** 0.0
15201 O 46.922299 24.881068 27.162852 O 0.0 **** 0.0
15202 H 46.545868 25.611632 26.672133 H 0.0 **** 0.0
15203 H 47.828841 25.142345 27.324546 H 0.0 **** 0.0
15204 M 46.99016 25.008036 27.120733 M 0.0 **** 0.0
15205 O 22.281365 1.655349 29.531356 O 0.0 **** 0.0
15206 H 22.781522 2.396619 29.872811 H 0.0 **** 0.0
15207 H 22.874386 0.908293 29.611743 H 0.0 **** 0.0
15208 M 22.421306 1.654609 29.585357 M 0.0 **** 0.0
15209 O 46.081483 39.848446 3.691188 O 0.0 **** 0.0
15210 H 46.996073 39.754363 3.957461 H 0.0 **** 0.0
15211 H 45.834449 40.724761 3.986611 H 0.0 **** 0.0
15212 M 46.166939 39.948581 3.763092 M 0.0 **** 0.0
15213 O 12.996177 39.136405 24.515452 O 0.0 **** 0.0
15214 H 13.281196 38.231524 24.642667 H 0.0 **** 0.0
15215 H 13.800377 39.61546 24.315459 H 0.0 **** 0.0
15216 M 13.135611 39.081894 24.506136 M 0.0 **** 0.0
15217 O 7.924588 37.009148 29.800727 O 0.0 **** 0.0
15218 H 8.363595 36.221196 30.121091 H 0.0 **** 0.0
15219 H 7.486295 36.729698 28.996963 H 0.0 **** 0.0
15220 M 7.924679 36.872507 29.738846 M 0.0 **** 0.0
15221 O 12.32139 11.861861 20.873202 O 0.0 **** 0.0
15222 H 12.85986 12.521803 21.309956 H 0.0 **** 0.0
15223 H 12.635143 11.027292 21.221459 H 0.0 **** 0.0
15224 M 12.430485 11.839507 20.973693 M 0.0 **** 0.0
15225 O 20.038414 19.97317 20.681627 O 0.0 **** 0.0
15226 H 20.409318 20.30456 19.863801 H 0.0 **** 0.0
15227 H 19.141797 19.725733 20.455615 H 0.0 **** 0.0
15228 M 19.971116 19.983917 20.548003 M 0.0 **** 0.0
15229 O 12.778299 0.621563 40.882687 O 0.0 **** 0.0
15230 H 13.552132 0.061946 40.947798 H 0.0 **** 0.0
15231 H 12.041292 0.011009 40.866186 H 0.0 **** 0.0
15232 M 12.783013 0.471767 40.88891 M 0.0 **** 0.0
15233 O 9.095947 31.754798 39.476721 O 0.0 **** 0.0
15234 H 8.483114 31.260654 40.021226 H 0.0 **** 0.0
15235 H 9.256782 31.188515 38.721947 H 0.0 **** 0.0
15236 M 9.038085 31.61905 39.449803 M 0.0 **** 0.0
15237 O 20.449258 38.306388 21.93597 O 0.0 **** 0.0
15238 H 20.857843 37.945124 22.722592 H 0.0 **** 0.0
15239 H 21.149883 38.314684 21.283832 H 0.0 **** 0.0
15240 M 20.591251 38.261204 21.953185 M 0.0 **** 0.0
15241 O 43.604125 34.671707 37.240517 O 0.0 **** 0.0
15242 H 43.594366 35.542728 37.637323 H 0.0 **** 0.0
15243 H 43.040329 34.752143 36.471171 H 0.0 **** 0.0
15244 M 43.530703 34.793506 37.192827 M 0.0 **** 0.0
15245 O 5.271313 13.050883 20.778466 O 0.0 **** 0.0
15246 H 5.109638 12.98138 21.719348 H 0.0 **** 0.0
15247 H 4.832643 12.287672 20.402558 H 0.0 **** 0.0
15248 M 5.194461 12.944285 20.85079 M 0.0 **** 0.0
15249 O 16.889909 30.403362 32.149056 O 0.0 **** 0.0
15250 H 17.585422 30.348583 31.493702 H 0.0 **** 0.0
15251 H 17.181715 31.087018 32.752125 H 0.0 **** 0.0
15252 M 17.016298 30.483866 32.142363 M 0.0 **** 0.0
15253 O 36.742896 19.967338 10.409992 O 0.0 **** 0.0
15254 H 37.661947 19.846605 10.171249 H 0.0 **** 0.0
15255 H 36.736694 19.931391 11.366495 H 0.0 **** 0.0
15256 M 36.859752 19.947281 10.501874 M 0.0 **** 0.0
15257 O 4.667666 33.649381 25.387468 O 0.0 **** 0.0
15258 H 4.551552 32.756306 25.711757 H 0.0 **** 0.0
15259 H 5.368213 34.01232 25.929444 H 0.0 **** 0.0
15260 M 4.74248 33.581517 25.498361 M 0.0 **** 0.0
15261 O 39.680563 5.534516 19.888171 O 0.0 **** 0.0
15262 H 39.307583 6.005073 19.142724 H 0.0 **** 0.0
15263 H 39.105516 4.778566 20.006867 H 0.0 **** 0.0
15264 M 39.559203 5.497982 19.807939 M 0.0 **** 0.0
15265 O 8.93976 27.034479 13.298314 O 0.0 **** 0.0
15266 H 8.674443 27.685625 13.94781 H 0.0 **** 0.0
15267 H 9.627058 26.528932 13.732218 H 0.0 **** 0.0
15268 M 8.993779 27.053118 13.437003 M 0.0 **** 0.0
15269 O 47.070287 32.539276 25.697661 O 0.0 **** 0.0
15270 H 46.924067 33.477412 25.576216 H 0.0 **** 0.0
15271 H 46.198592 32.179906 25.862675 H 0.0 **** 0.0
15272 M 46.939981 32.613365 25.703239 M 0.0 **** 0.0
15273 O 8.745272 0.24269 9.838495 O 0.0 **** 0.0
15274 H 8.331586 0.845795 9.220954 H 0.0 **** 0.0
15275 H 8.044509 0.001365 10.444235 H 0.0 **** 0.0
15276 M 8.602609 0.289003 9.836984 M 0.0 **** 0.0
15277 O 37.616087 17.234253 29.788905 O 0.0 **** 0.0
15278 H 37.207695 16.743726 29.075583 H 0.0 **** 0.0
15279 H 37.009542 17.953914 29.963319 H 0.0 **** 0.0
15280 M 37.486162 17.263585 29.719918 M 0.0 **** 0.0
15281 O 26.66131 10.03059 30.64 O 0.0 **** 0.0
15282 H 25.949057 10.508584 30.215211 H 0.0 **** 0.0
15283 H 27.411162 10.623476 30.590632 H 0.0 **** 0.0
15284 M 26.666123 10.167677 30.579302 M 0.0 **** 0.0
15285 O 36.283247 40.30419 17.478306 O 0.0 **** 0.0
15286 H 36.784194 40.992222 17.040251 H 0.0 **** 0.0
15287 H 36.935125 39.642033 17.708161 H 0.0 **** 0.0
15288 M 36.430823 40.307502 17.451654 M 0.0 **** 0.0
15289 O 44.318796 9.758769 22.123654 O 0.0 **** 0.0
15290 H 45.21379 10.036063 21.927894 H 0.0 **** 0.0
15291 H 44.380742 8.810307 22.236836 H 0.0 **** 0.0
15292 M 44.441296 9.672851 22.113083 M 0.0 **** 0.0
15293 O 15.09052 30.606191 12.926676 O 0.0 **** 0.0
15294 H 15.777394 30.951551 13.496903 H 0.0 **** 0.0
15295 H 14.762705 29.833447 13.386712 H 0.0 **** 0.0
15296 M 15.136484 30.55148 13.058563 M 0.0 **** 0.0
15297 O 30.054595 43.65772 15.998773 O 0.0 **** 0.0
15298 H 30.815031 43.124634 16.230691 H 0.0 **** 0.0
15299 H 29.301307 43.125036 16.253789 H 0.0 **** 0.0
15300 M 30.05551 43.521288 16.061106 M 0.0 **** 0.0
15301 O 37.545408 10.785751 22.212657 O 0.0 **** 0.0
15302 H 38.326958 11.144341 21.792154 H 0.0 **** 0.0
15303 H 37.23165 10.116188 21.604816 H 0.0 **** 0.0
15304 M 37.605292 10.745943 22.081016 M 0.0 **** 0.0
15305 O 30.9146 11.072742 32.026939 O 0.0 **** 0.0
15306 H 31.766511 10.636667 32.009203 H 0.0 **** 0.0
15307 H 31.120671 12.004923 31.957645 H 0.0 **** 0.0
15308 M 31.050035 11.13625 32.015798 M 0.0 **** 0.0
15309 O 11.794124 3.463019 46.340619 O 0.0 **** 0.0
15310 H 12.084623 3.311885 47.240062 H 0.0 **** 0.0
15311 H 10.8632 3.240426 46.348483 H 0.0 **** 0.0
15312 M 11.712142 3.415178 46.456766 M 0.0 **** 0.0
15313 O 31.559567 32.217729 20.40453 O 0.0 **** 0.0
15314 H 31.119889 31.795933 19.666288 H 0.0 **** 0.0
15315 H 30.856179 32.653847 20.88544 H 0.0 **** 0.0
15316 M 31.41324 32.219562 20.371588 M 0.0 **** 0.0
15317 O 10.398805 16.489509 8.099719 O 0.0 **** 0.0
15318 H 9.506733 16.142516 8.105427 H 0.0 **** 0.0
15319 H 10.954497 15.725457 8.253533 H 0.0 **** 0.0
15320 M 10.355744 16.347282 8.12014 M 0.0 **** 0.0
15321 O 12.597995 47.064545 47.934463 O 0.0 **** 0.0
15322 H 13.037063 47.912465 48.0014 H 0.0 **** 0.0
15323 H 13.066757 46.605935 47.237206 H 0.0 **** 0.0
15324 M 12.714209 47.114382 47.853774 M 0.0 **** 0.0
15325 O 28.57859 15.147794 45.983037 O 0.0 **** 0.0
15326 H 28.649575 16.101665 46.019379 H 0.0 **** 0.0
15327 H 27.637692 14.975616 46.019017 H 0.0 **** 0.0
15328 M 28.46723 15.247861 45.992295 M 0.0 **** 0.0
15329 O 1.059555 17.465364 47.848603 O 0.0 **** 0.0
15330 H 1.154345 18.406412 47.995824 H 0.0 **** 0.0
15331 H 1.881683 17.203257 47.434317 H 0.0 **** 0.0
15332 M 1.176932 17.552277 47.814416 M 0.0 **** 0.0
15333 O 16.371124 11.797077 16.675569 O 0.0 **** 0.0
15334 H 15.930659 10.947261 16.681195 H 0.0 **** 0.0
15335 H 17.303981 11.583738 16.653344 H 0.0 **** 0.0
15336 M 16.434157 11.660979 16.673444 M 0.0 **** 0.0
15337 O 30.00502 42.374566 42.07989 O 0.0 **** 0.0
15338 H 30.358411 43.246319 41.902719 H 0.0 **** 0.0
15339 H 30.777131 41.826878 42.221707 H 0.0 **** 0.0
15340 M 30.149099 42.41605 42.075365 M 0.0 **** 0.0
15341 O 9.727471 29.102126 36.585251 O 0.0 **** 0.0
15342 H 9.244169 28.278146 36.646112 H 0.0 **** 0.0
15343 H 9.197315 29.728294 37.07828 H 0.0 **** 0.0
15344 M 9.597736 29.076804 36.656156 M 0.0 **** 0.0
15345 O 8.672426 13.270494 22.226395 O 0.0 **** 0.0
15346 H 9.556829 13.417032 21.890856 H 0.0 **** 0.0
15347 H 8.118894 13.853221 21.70653 H 0.0 **** 0.0
15348 M 8.714782 13.363849 22.116893 M 0.0 **** 0.0
15349 O 30.621844 0.539207 6.696434 O 0.0 **** 0.0
15350 H 31.331071 0.006497 6.336649 H 0.0 **** 0.0
15351 H 29.84162 -0.008079 6.607232 H 0.0 **** 0.0
15352 M 30.612755 0.400954 6.638958 M 0.0 **** 0.0
15353 O 38.753929 16.737279 26.19496 O 0.0 **** 0.0
15354 H 38.346774 16.678419 25.330675 H 0.0 **** 0.0
15355 H 38.054426 16.505943 26.806032 H 0.0 **** 0.0
15356 M 38.612263 16.70013 26.162545 M 0.0 **** 0.0
15357 O 31.8904 21.023641 19.392894 O 0.0 **** 0.0
15358 H 32.564002 21.051407 18.713396 H 0.0 **** 0.0
15359 H 32.307984 20.572309 20.126482 H 0.0 **** 0.0
15360 M 32.030086 20.969419 19.399818 M 0.0 **** 0.0
15361 O 22.600595 4.877672 47.480233 O 0.0 **** 0.0
15362 H 22.549561 3.98707 47.827296 H 0.0 **** 0.0
15363 H 21.976092 5.376602 48.006819 H 0.0 **** 0.0
15364 M 22.514118 4.827533 47.592071 M 0.0 **** 0.0
15365 O 43.124095 11.345137 0.355465 O 0.0 **** 0.0
15366 H 42.928204 11.918218 1.096703 H 0.0 **** 0.0
15367 H 44.070851 11.42135 0.236835 H 0.0 **** 0.0
15368 M 43.220215 11.428255 0.435167 M 0.0 **** 0.0
15369 O 15.545101 39.982985 5.922185 O 0.0 **** 0.0
15370 H 16.164651 39.818231 6.632989 H 0.0 **** 0.0
15371 H 16.06994 40.398135 5.237771 H 0.0 **** 0.0
15372 M 15.691597 40.015039 5.925563 M 0.0 **** 0.0
15373 O 36.838707 23.122848 6.874345 O 0.0 **** 0.0
15374 H 37.189377 23.971913 7.143322 H 0.0 **** 0.0
15375 H 35.892232 23.257934 6.82782 H 0.0 **** 0.0
15376 M 36.762437 23.248832 6.902821 M 0.0 **** 0.0
15377 O 26.935583 31.902241 32.387198 O 0.0 **** 0.0
15378 H 26.061988 31.517654 32.458987 H 0.0 **** 0.0
15379 H 27.30245 31.517613 31.591147 H 0.0 **** 0.0
15380 M 26.870715 31.803772 32.294483 M 0.0 **** 0.0
15381 O 44.585148 2.9204 8.186776 O 0.0 **** 0.0
15382 H 45.343659 3.148006 8.724443 H 0.0 **** 0.0
15383 H 44.633207 3.516495 7.439387 H 0.0 **** 0.0
15384 M 44.688399 3.025844 8.159929 M 0.0 **** 0.0
15385 O 0.641975 12.273667 14.898072 O 0.0 **** 0.0
15386 H 1.52746 12.631069 14.964465 H 0.0 **** 0.0
15387 H 0.152078 12.935368 14.409829 H 0.0 **** 0.0
15388 M 0.692615 12.404125 14.84407 M 0.0 **** 0.0
15389 O 4.578744 7.244723 47.276558 O 0.0 **** 0.0
15390 H 4.173852 6.486302 47.697377 H 0.0 **** 0.0
15391 H 4.944089 7.75399 48.000021 H 0.0 **** 0.0
15392 M 4.573682 7.212828 47.423041 M 0.0 **** 0.0
15393 O 11.922064 30.281574 13.071111 O 0.0 **** 0.0
15394 H 12.736409 30.747256 13.261402 H 0.0 **** 0.0
15395 H 11.537628 30.760555 12.336935 H 0.0 **** 0.0
15396 M 11.977098 30.402503 13.001486 M 0.0 **** 0.0
15397 O -0.044464 36.366513 17.169113 O 0.0 **** 0.0
15398 H 0.42221 35.557157 16.960819 H 0.0 **** 0.0
15399 H 0.627292 37.047362 17.131472 H 0.0 **** 0.0
15400 M 0.10127 36.350062 17.13763 M 0.0 **** 0.0
15401 O 35.581505 8.708568 10.956723 O 0.0 **** 0.0
15402 H 34.75884 8.386201 11.324868 H 0.0 **** 0.0
15403 H 36.248828 8.438738 11.587675 H 0.0 **** 0.0
15404 M 35.561619 8.632759 11.08462 M 0.0 **** 0.0
15405 O 27.975024 13.120588 17.80869 O 0.0 **** 0.0
15406 H 28.910766 12.919861 17.790719 H 0.0 **** 0.0
15407 H 27.545434 12.266368 17.764095 H 0.0 **** 0.0
15408 M 28.039818 12.985542 17.800681 M 0.0 **** 0.0
15409 O 31.89178 23.085522 44.54264 O 0.0 **** 0.0
15410 H 32.629277 23.109286 45.152363 H 0.0 **** 0.0
15411 H 32.223945 23.502881 43.747841 H 0.0 **** 0.0
15412 M 32.02871 23.141991 44.518948 M 0.0 **** 0.0
15413 O 40.827722 42.295528 38.45281 O 0.0 **** 0.0
15414 H 41.081534 41.564667 39.016415 H 0.0 **** 0.0
15415 H 40.859442 43.062163 39.02508 H 0.0 **** 0.0
15416 M 40.864274 42.300107 38.598216 M 0.0 **** 0.0
15417 O 15.373809 27.852921 2.712764 O 0.0 **** 0.0
15418 H 16.134909 28.062397 2.1714 H 0.0 **** 0.0
15419 H 15.053109 27.021064 2.364347 H 0.0 **** 0.0
15420 M 15.430186 27.773249 2.598861 M 0.0 **** 0.0
15421 O 29.203672 22.056473 23.479352 O 0.0 **** 0.0
15422 H 29.268914 22.506455 24.321663 H 0.0 **** 0.0
15423 H 30.090177 21.738916 23.307609 H 0.0 **** 0.0
15424 M 29.325507 22.073425 23.565193 M 0.0 **** 0.0
15425 O 25.861351 22.158301 14.114788 O 0.0 **** 0.0
15426 H 24.911087 22.152707 13.999916 H 0.0 **** 0.0
15427 H 26.173823 21.440005 13.564661 H 0.0 **** 0.0
15428 M 25.779705 22.065634 14.02966 M 0.0 **** 0.0
15429 O 3.133828 15.6328 30.417828 O 0.0 **** 0.0
15430 H 3.856331 15.361297 29.851697 H 0.0 **** 0.0
15431 H 3.031391 16.568514 30.24412 H 0.0 **** 0.0
15432 M 3.213204 15.717827 30.323119 M 0.0 **** 0.0
15433 O 47.181894 6.656716 18.387948 O 0.0 **** 0.0
15434 H 46.741235 6.178348 19.090239 H 0.0 **** 0.0
15435 H 48.000062 6.960451 18.781107 H 0.0 **** 0.0
15436 M 47.23022 6.634361 18.528179 M 0.0 **** 0.0
15437 O 36.58052 1.878671 32.851551 O 0.0 **** 0.0
15438 H 37.014423 1.028654 32.925235 H 0.0 **** 0.0
15439 H 37.097328 2.356501 32.202848 H 0.0 **** 0.0
15440 M 36.702223 1.831026 32.777941 M 0.0 **** 0.0
15441 O 0.791025 23.362584 38.282494 O 0.0 **** 0.0
15442 H 0.537509 24.285155 38.31115 H 0.0 **** 0.0
15443 H 1.432891 23.268107 38.986277 H 0.0 **** 0.0
15444 M 0.840738 23.468591 38.376256 M 0.0 **** 0.0
15445 O 2.09558 36.116258 44.934694 O 0.0 **** 0.0
15446 H 2.366807 35.916735 44.038672 H 0.0 **** 0.0
15447 H 2.756236 35.695345 45.484779 H 0.0 **** 0.0
15448 M 2.214872 36.036835 44.89041 M 0.0 **** 0.0
15449 O 31.059939 30.215567 35.251793 O 0.0 **** 0.0
15450 H 31.78549 30.098292 35.865023 H 0.0 **** 0.0
15451 H 30.603293 29.374329 35.256598 H 0.0 **** 0.0
15452 M 31.094362 30.092865 35.33091 M 0.0 **** 0.0
15453 O 14.699724 38.695539 33.860103 O 0.0 **** 0.0
15454 H 13.897616 39.153337 33.608565 H 0.0 **** 0.0
15455 H 15.339832 39.393016 34.001581 H 0.0 **** 0.0
15456 M 14.678986 38.843428 33.846014 M 0.0 **** 0.0
15457 O 37.18236 6.5962 32.938919 O 0.0 **** 0.0
15458 H 37.799336 7.282507 33.19299 H 0.0 **** 0.0
15459 H 37.706365 5.795279 32.925775 H 0.0 **** 0.0
15460 M 37.32842 6.581528 32.96976 M 0.0 **** 0.0
15461 O 0.785053 41.240155 36.436336 O 0.0 **** 0.0
15462 H 1.058931 41.930375 35.832336 H 0.0 **** 0.0
15463 H -0.006954 41.583523 36.849919 H 0.0 **** 0.0
15464 M 0.718726 41.372467 36.41196 M 0.0 **** 0.0
15465 O 2.547115 36.058815 12.917236 O 0.0 **** 0.0
15466 H 2.733067 36.795961 13.498842 H 0.0 **** 0.0
15467 H 2.77995 36.376713 12.044907 H 0.0 **** 0.0
15468 M 2.600725 36.193874 12.88002 M 0.0 **** 0.0
15469 O 16.21849 16.810882 42.541594 O 0.0 **** 0.0
15470 H 16.827885 16.385591 43.144914 H 0.0 **** 0.0
15471 H 15.788019 17.483272 43.069623 H 0.0 **** 0.0
15472 M 16.241395 16.842514 42.686421 M 0.0 **** 0.0
15473 O 25.775993 29.327614 31.777414 O 0.0 **** 0.0
15474 H 25.584951 28.391548 31.718153 H 0.0 **** 0.0
15475 H 24.917123 29.743604 31.851735 H 0.0 **** 0.0
15476 M 25.641591 29.261038 31.779342 M 0.0 **** 0.0
15477 O 34.528124 17.409013 7.075234 O 0.0 **** 0.0
15478 H 33.613114 17.260205 7.313648 H 0.0 **** 0.0
15479 H 34.51811 18.232385 6.58719 H 0.0 **** 0.0
15480 M 34.40971 17.495366 7.043278 M 0.0 **** 0.0
15481 O 39.862432 32.014198 44.808731 O 0.0 **** 0.0
15482 H 39.129703 32.471122 44.395745 H 0.0 **** 0.0
15483 H 39.752943 32.18188 45.744745 H 0.0 **** 0.0
15484 M 39.754617 32.094156 44.875685 M 0.0 **** 0.0
15485 O 1.934006 10.375752 5.460965 O 0.0 **** 0.0
15486 H 1.498429 11.146773 5.824321 H 0.0 **** 0.0
15487 H 1.540343 9.636797 5.924865 H 0.0 **** 0.0
15488 M 1.827853 10.379857 5.566864 M 0.0 **** 0.0
15489 O 37.256923 5.326372 35.118646 O 0.0 **** 0.0
15490 H 36.425111 5.504655 34.67986 H 0.0 **** 0.0
15491 H 37.725372 6.160718 35.093136 H 0.0 **** 0.0
15492 M 37.210408 5.456001 35.05921 M 0.0 **** 0.0
15493 O 9.897642 34.965919 15.476666 O 0.0 **** 0.0
15494 H 10.468241 35.373819 14.825311 H 0.0 **** 0.0
15495 H 9.348297 34.365847 14.972322 H 0.0 **** 0.0
15496 M 9.900363 34.941318 15.328722 M 0.0 **** 0.0
15497 O 27.5754 25.308366 38.277258 O 0.0 **** 0.0
15498 H 27.913708 24.412981 38.285108 H 0.0 **** 0.0
15499 H 26.623835 25.205291 38.265931 H 0.0 **** 0.0
15500 M 27.496896 25.180551 38.276813 M 0.0 **** 0.0
15501 O 30.904358 7.721371 30.954875 O 0.0 **** 0.0
15502 H 29.960011 7.770185 31.103383 H 0.0 **** 0.0
15503 H 31.290394 7.845809 31.821893 H 0.0 **** 0.0
15504 M 30.832887 7.74355 31.084875 M 0.0 **** 0.0
15505 O 38.677866 0.883824 7.270905 O 0.0 **** 0.0
15506 H 38.244442 1.676413 6.9544 H 0.0 **** 0.0
15507 H 39.601253 1.012297 7.053927 H 0.0 **** 0.0
15508 M 38.740588 1.001732 7.202612 M 0.0 **** 0.0
15509 O 41.933481 39.321272 18.942483 O 0.0 **** 0.0
15510 H 41.169036 39.844122 18.700654 H 0.0 **** 0.0
15511 H 42.623075 39.965058 19.104434 H 0.0 **** 0.0
15512 M 41.923899 39.470616 18.932257 M 0.0 **** 0.0
15513 O 4.096376 20.391916 38.537209 O 0.0 **** 0.0
15514 H 3.477592 19.867241 39.045196 H 0.0 **** 0.0
15515 H 4.146389 21.224843 39.006208 H 0.0 **** 0.0
15516 M 4.023566 20.431376 38.662275 M 0.0 **** 0.0
15517 O 0.320067 4.339164 13.013728 O 0.0 **** 0.0
15518 H -0.010071 3.965276 13.830702 H 0.0 **** 0.0
15519 H 1.189675 4.671659 13.236121 H 0.0 **** 0.0
15520 M 0.389126 4.333865 13.14678 M 0.0 **** 0.0
15521 O 4.182944 27.176551 10.71561 O 0.0 **** 0.0
15522 H 3.390388 27.37596 11.213927 H 0.0 **** 0.0
15523 H 4.025383 26.304886 10.352838 H 0.0 **** 0.0
15524 M 4.061317 27.090494 10.732961 M 0.0 **** 0.0
15525 O 37.529874 23.260837 35.382672 O 0.0 **** 0.0
15526 H 38.202343 22.701746 34.993529 H 0.0 **** 0.0
15527 H 38.00894 24.02532 35.7025 H 0.0 **** 0.0
15528 M 37.677285 23.28713 35.373799 M 0.0 **** 0.0
15529 O 11.092342 0.086303 33.006335 O 0.0 **** 0.0
15530 H 11.388522 0.002335 32.099993 H 0.0 **** 0.0
15531 H 11.885627 -0.028123 33.529627 H 0.0 **** 0.0
15532 M 11.231808 0.060906 32.9573 M 0.0 **** 0.0
15533 O 0.797729 40.893413 21.778412 O 0.0 **** 0.0
15534 H 0.307726 41.711305 21.863134 H 0.0 **** 0.0
15535 H 0.397449 40.306304 22.419744 H 0.0 **** 0.0
15536 M 0.683762 40.922956 21.871356 M 0.0 **** 0.0
15537 O 4.578658 4.37625 6.23927 O 0.0 **** 0.0
15538 H 5.526124 4.51177 6.226234 H 0.0 **** 0.0
15539 H 4.210075 5.259509 6.254412 H 0.0 **** 0.0
15540 M 4.652762 4.506666 6.23954 M 0.0 **** 0.0
15541 O 40.187749 28.187446 23.247472 O 0.0 **** 0.0
15542 H 39.67985 28.821009 22.740654 H 0.0 **** 0.0
15543 H 40.939393 28.685012 23.569477 H 0.0 **** 0.0
15544 M 40.218951 28.332245 23.223814 M 0.0 **** 0.0
15545 O 19.606403 22.164302 47.651672 O 0.0 **** 0.0
15546 H 20.39307 21.765526 48.023643 H 0.0 **** 0.0
15547 H 18.914461 21.52181 47.808673 H 0.0 **** 0.0
15548 M 19.618529 22.031006 47.719387 M 0.0 **** 0.0
15549 O 18.649683 0.252113 17.052886 O 0.0 **** 0.0
15550 H 19.487831 0.001903 16.664129 H 0.0 **** 0.0
15551 H 18.756036 1.176301 17.27826 H 0.0 **** 0.0
15552 M 18.770591 0.338391 17.031971 M 0.0 **** 0.0
15553 O 38.599613 16.761776 0.193921 O 0.0 **** 0.0
15554 H 38.492037 15.813185 0.124414 H 0.0 **** 0.0
15555 H 39.524595 16.91327 -0.000209 H 0.0 **** 0.0
15556 M 38.704251 16.659738 0.160172 M 0.0 **** 0.0
15557 O 10.814226 32.193619 15.860657 O 0.0 **** 0.0
15558 H 10.553911 32.156484 14.940285 H 0.0 **** 0.0
15559 H 10.176163 32.780087 16.267055 H 0.0 **** 0.0
15560 M 10.699222 32.26394 15.794862 M 0.0 **** 0.0
15561 O 2.172715 40.784992 38.487133 O 0.0 **** 0.0
15562 H 2.983326 40.94536 38.970269 H 0.0 **** 0.0
15563 H 1.585339 40.386608 39.129402 H 0.0 **** 0.0
15564 M 2.201292 40.754523 38.631199 M 0.0 **** 0.0
15565 O 29.983482 33.687777 12.965875 O 0.0 **** 0.0
15566 H 30.0462 33.85611 12.025684 H 0.0 **** 0.0
15567 H 29.049769 33.765355 13.16181 H 0.0 **** 0.0
15568 M 29.871983 33.719257 12.870601 M 0.0 **** 0.0
15569 O 37.099868 3.165459 12.014509 O 0.0 **** 0.0
15570 H 36.889497 2.265438 12.263376 H 0.0 **** 0.0
15571 H 36.250927 3.604449 11.961428 H 0.0 **** 0.0
15572 M 36.964262 3.106441 12.039572 M 0.0 **** 0.0
15573 O 25.369158 9.615041 35.308993 O 0.0 **** 0.0
15574 H 25.977158 9.620878 34.569716 H 0.0 **** 0.0
15575 H 24.501107 9.604867 34.90574 H 0.0 **** 0.0
15576 M 25.335868 9.614486 35.162735 M 0.0 **** 0.0
15577 O 47.402421 13.200574 30.864842 O 0.0 **** 0.0
15578 H 47.999357 13.636433 31.473055 H 0.0 **** 0.0
15579 H 47.10139 13.898197 30.282665 H 0.0 **** 0.0
15580 M 47.440301 13.345674 30.868175 M 0.0 **** 0.0
15581 O 5.542087 30.954798 39.419882 O 0.0 **** 0.0
15582 H 6.248294 31.600937 39.417591 H 0.0 **** 0.0
15583 H 4.741032 31.47502 39.482405 H 0.0 **** 0.0
15584 M 5.529945 31.104107 39.427593 M 0.0 **** 0.0
15585 O 4.365597 4.973708 42.938686 O 0.0 **** 0.0
15586 H 5.145797 4.449265 42.758475 H 0.0 **** 0.0
15587 H 4.597304 5.856041 42.64881 H 0.0 **** 0.0
15588 M 4.495134 5.019522 42.878509 M 0.0 **** 0.0
15589 O 5.206937 11.036288 46.399585 O 0.0 **** 0.0
15590 H 5.344983 11.018601 45.452558 H 0.0 **** 0.0
15591 H 6.019848 11.396636 46.753919 H 0.0 **** 0.0
15592 M 5.328671 11.080153 46.323713 M 0.0 **** 0.0
15593 O 16.257401 25.328156 3.661038 O 0.0 **** 0.0
15594 H 15.501028 25.020285 3.161696 H 0.0 **** 0.0
15595 H 16.784692 25.811054 3.024639 H 0.0 **** 0.0
15596 M 16.228076 25.350562 3.515649 M 0.0 **** 0.0
15597 O 5.721477 0.642242 4.159245 O 0.0 **** 0.0
15598 H 5.55601 1.0289 3.299393 H 0.0 **** 0.0
15599 H 6.384484 -0.028833 3.997048 H 0.0 **** 0.0
15600 M 5.785168 0.605833 4.02841 M 0.0 **** 0.0
15601 O 8.062892 21.786896 18.21568 O 0.0 **** 0.0
15602 H 7.347521 22.202037 17.733881 H 0.0 **** 0.0
15603 H 7.920328 22.044814 19.126384 H 0.0 **** 0.0
15604 M 7.953066 21.873056 18.270585 M 0.0 **** 0.0
15605 O 29.861059 31.450379 6.092229 O 0.0 **** 0.0
15606 H 29.419401 30.655553 6.391257 H 0.0 **** 0.0
15607 H 29.759455 32.068232 6.81622 H 0.0 **** 0.0
15608 M 29.791515 31.427724 6.223189 M 0.0 **** 0.0
15609 O 43.66814 12.915708 46.782317 O 0.0 **** 0.0
15610 H 43.468411 12.035969 46.462325 H 0.0 **** 0.0
15611 H 44.582252 12.867511 47.062149 H 0.0 **** 0.0
15612 M 43.75959 12.796921 46.777176 M 0.0 **** 0.0
15613 O 45.158823 35.844812 0.642575 O 0.0 **** 0.0
15614 H 44.70433 36.219618 1.397019 H 0.0 **** 0.0
15615 H 44.467652 35.689608 -0.001182 H 0.0 **** 0.0
15616 M 45.012164 35.872924 0.656744 M 0.0 **** 0.0
15617 O 10.826465 27.130746 15.644239 O 0.0 **** 0.0
15618 H 10.049555 26.627973 15.888899 H 0.0 **** 0.0
15619 H 10.480134 27.94281 15.274327 H 0.0 **** 0.0
15620 M 10.682676 27.170339 15.628205 M 0.0 **** 0.0
15621 O 8.045199 14.447961 2.450369 O 0.0 **** 0.0
15622 H 7.684189 15.333547 2.409894 H 0.0 **** 0.0
15623 H 8.960896 14.573233 2.699436 H 0.0 **** 0.0
15624 M 8.116206 14.577364 2.477072 M 0.0 **** 0.0
15625 O 10.285248 44.108293 6.647007 O 0.0 **** 0.0
15626 H 9.896864 44.794982 7.189081 H 0.0 **** 0.0
15627 H 10.935587 44.563683 6.112304 H 0.0 **** 0.0
15628 M 10.318782 44.254493 6.647951 M 0.0 **** 0.0
15629 O 16.26193 9.555618 1.649718 O 0.0 **** 0.0
15630 H 15.428129 10.00487 1.788202 H 0.0 **** 0.0
15631 H 16.893228 10.260481 1.505286 H 0.0 **** 0.0
15632 M 16.236007 9.703359 1.648956 M 0.0 **** 0.0
15633 O 3.003282 27.685014 43.659634 O 0.0 **** 0.0
15634 H 2.70042 28.592753 43.682303 H 0.0 **** 0.0
15635 H 3.957772 27.751118 43.631206 H 0.0 **** 0.0
15636 M 3.086699 27.809678 43.658897 M 0.0 **** 0.0
15637 O 18.836018 9.889832 5.69785 O 0.0 **** 0.0
15638 H 19.09652 10.806077 5.603713 H 0.0 **** 0.0
15639 H 17.915884 9.873672 5.434558 H 0.0 **** 0.0
15640 M 18.751577 10.005054 5.652095 M 0.0 **** 0.0
15641 O 46.613026 10.961342 1.404556 O 0.0 **** 0.0
15642 H 46.080845 11.738368 1.575566 H 0.0 **** 0.0
15643 H 47.299933 11.266591 0.811925 H 0.0 **** 0.0
15644 M 46.632833 11.099887 1.350583 M 0.0 **** 0.0
15645 O 7.121556 4.685321 25.541421 O 0.0 **** 0.0
15646 H 8.04929 4.879666 25.408124 H 0.0 **** 0.0
15647 H 7.047716 3.744796 25.379591 H 0.0 **** 0.0
15648 M 7.230865 4.589801 25.503641 M 0.0 **** 0.0
15649 O 15.037362 27.379991 11.235762 O 0.0 **** 0.0
15650 H 14.941916 28.330494 11.175243 H 0.0 **** 0.0
15651 H 15.980828 27.237953 11.312749 H 0.0 **** 0.0
15652 M 15.145919 27.483485 11.23787 M 0.0 **** 0.0
15653 O 31.281994 19.45814 14.512614 O 0.0 **** 0.0
15654 H 31.221342 19.1391 13.61219 H 0.0 **** 0.0
15655 H 31.625062 20.347862 14.429378 H 0.0 **** 0.0
15656 M 31.318146 19.531194 14.386693 M 0.0 **** 0.0
15657 O 4.641082 18.403639 1.862196 O 0.0 **** 0.0
15658 H 3.858107 18.691544 2.331546 H 0.0 **** 0.0
15659 H 4.310759 17.817873 1.181025 H 0.0 **** 0.0
15660 M 4.498566 18.365509 1.83508 M 0.0 **** 0.0
15661 O 20.38104 14.41903 24.757249 O 0.0 **** 0.0
15662 H 19.59411 14.065116 24.342864 H 0.0 **** 0.0
15663 H 20.11736 15.282695 25.074714 H 0.0 **** 0.0
15664 M 20.246548 14.484284 24.744842 M 0.0 **** 0.0
15665 O 8.555664 36.891439 33.387848 O 0.0 **** 0.0
15666 H 9.077064 37.53985 32.914632 H 0.0 **** 0.0
15667 H 8.350501 36.224179 32.732942 H 0.0 **** 0.0
15668 M 8.596146 36.889026 33.243434 M 0.0 **** 0.0
15669 O 41.376671 40.790915 7.207915 O 0.0 **** 0.0
15670 H 41.19183 41.384327 7.935874 H 0.0 **** 0.0
15671 H 41.292409 41.336671 6.426071 H 0.0 **** 0.0
15672 M 41.342222 40.936743 7.201017 M 0.0 **** 0.0
15673 O 39.969965 3.801449 27.317393 O 0.0 **** 0.0
15674 H 40.801463 4.179474 27.60364 H 0.0 **** 0.0
15675 H 39.406193 3.849201 28.089475 H 0.0 **** 0.0
15676 M 40.004238 3.855953 27.452873 M 0.0 **** 0.0
15677 O 4.279607 43.269933 47.551214 O 0.0 **** 0.0
15678 H 3.472934 43.441188 47.06523 H 0.0 **** 0.0
15679 H 4.203 42.357275 47.829448 H 0.0 **** 0.0
15680 M 4.166536 43.175024 47.524619 M 0.0 **** 0.0
15681 O 2.153254 5.933491 28.207839 O 0.0 **** 0.0
15682 H 2.649599 6.53203 28.76607 H 0.0 **** 0.0
15683 H 1.248281 6.238185 28.274281 H 0.0 **** 0.0
15684 M 2.100945 6.049116 28.287805 M 0.0 **** 0.0
15685 O 47.639319 40.079548 13.737661 O 0.0 **** 0.0
15686 H 46.891569 40.473452 14.187035 H 0.0 **** 0.0
15687 H 48.008656 39.469302 14.375955 H 0.0 **** 0.0
15688 M 47.590878 40.051853 13.876897 M 0.0 **** 0.0
15689 O 43.084895 4.013866 10.334046 O 0.0 **** 0.0
15690 H 42.383087 4.649564 10.194106 H 0.0 **** 0.0
15691 H 43.154005 3.938304 11.285752 H 0.0 **** 0.0
15692 M 43.003902 4.08557 10.437963 M 0.0 **** 0.0
15693 O 39.674124 16.487163 29.228906 O 0.0 **** 0.0
15694 H 40.177253 17.210544 29.602819 H 0.0 **** 0.0
15695 H 39.970533 15.714672 29.710183 H 0.0 **** 0.0
15696 M 39.776475 16.480876 29.338381 M 0.0 **** 0.0
15697 O 24.346471 10.604501 20.555088 O 0.0 **** 0.0
15698 H 24.803658 11.188595 21.160103 H 0.0 **** 0.0
15699 H 24.289634 11.1012 19.738824 H 0.0 **** 0.0
15700 M 24.397721 10.742856 20.528046 M 0.0 **** 0.0
15701 O 41.297221 47.114785 1.040782 O 0.0 **** 0.0
15702 H 40.780623 47.295679 0.255522 H 0.0 **** 0.0
15703 H 41.847153 46.369309 0.799807 H 0.0 **** 0.0
15704 M 41.301488 47.042512 0.909411 M 0.0 **** 0.0
15705 O 47.431716 44.285642 45.28914 O 0.0 **** 0.0
15706 H 48.000782 43.537606 45.107936 H 0.0 **** 0.0
15707 H 48.004348 44.926137 45.711145 H 0.0 **** 0.0
15708 M 47.577868 44.271876 45.319966 M 0.0 **** 0.0
15709 O 16.148394 8.307062 25.978142 O 0.0 **** 0.0
15710 H 15.963515 8.055292 26.88294 H 0.0 **** 0.0
15711 H 15.31547 8.643644 25.647718 H 0.0 **** 0.0
15712 M 16.018102 8.317919 26.051669 M 0.0 **** 0.0
15713 O 35.63149 31.086134 33.73776 O 0.0 **** 0.0
15714 H 36.158573 30.521175 34.302767 H 0.0 **** 0.0
15715 H 35.386282 31.82326 34.296998 H 0.0 **** 0.0
15716 M 35.667574 31.108174 33.881677 M 0.0 **** 0.0
15717 O 1.934365 17.190928 8.69424 O 0.0 **** 0.0
15718 H 1.017573 16.917091 8.721329 H 0.0 **** 0.0
15719 H 2.429664 16.387201 8.852132 H 0.0 **** 0.0
15720 M 1.880408 17.052987 8.71792 M 0.0 **** 0.0
15721 O 3.57998 23.932224 4.935093 O 0.0 **** 0.0
15722 H 3.893747 23.767702 5.824313 H 0.0 **** 0.0
15723 H 3.780615 23.12756 4.457085 H 0.0 **** 0.0
15724 M 3.64583 23.808156 4.987733 M 0.0 **** 0.0
15725 O 44.134383 23.085813 27.562733 O 0.0 **** 0.0
15726 H 44.019019 22.634787 28.399091 H 0.0 **** 0.0
15727 H 44.814001 23.737887 27.733459 H 0.0 **** 0.0
15728 M 44.206614 23.11155 27.691652 M 0.0 **** 0.0
15729 O 38.12808 42.431494 45.707136 O 0.0 **** 0.0
15730 H 38.470225 43.320251 45.80345 H 0.0 **** 0.0
15731 H 38.895075 41.867187 45.804636 H 0.0 **** 0.0
15732 M 38.270064 42.473028 45.731947 M 0.0 **** 0.0
15733 O 19.039388 0.787474 43.57595 O 0.0 **** 0.0
15734 H 19.117717 1.655123 43.972533 H 0.0 **** 0.0
15735 H 19.75188 0.280468 43.965216 H 0.0 **** 0.0
15736 M 19.140623 0.833641 43.676549 M 0.0 **** 0.0
15737 O 32.915321 7.20816 42.152912 O 0.0 **** 0.0
15738 H 33.863379 7.129632 42.258968 H 0.0 **** 0.0
15739 H 32.768651 8.139501 41.987622 H 0.0 **** 0.0
15740 M 33.017909 7.317331 42.145329 M 0.0 **** 0.0
15741 O 16.666584 43.247858 46.379095 O 0.0 **** 0.0
15742 H 17.235761 42.674012 45.866292 H 0.0 **** 0.0
15743 H 15.778906 42.975002 46.147134 H 0.0 **** 0.0
15744 M 16.625812 43.139469 46.283756 M 0.0 **** 0.0
15745 O 27.686126 42.45352 25.140787 O 0.0 **** 0.0
15746 H 27.473543 43.386813 25.140281 H 0.0 **** 0.0
15747 H 28.642908 42.425318 25.142064 H 0.0 **** 0.0
15748 M 27.781393 42.569383 25.140886 M 0.0 **** 0.0
15749 O 10.388964 13.574055 9.143761 O 0.0 **** 0.0
15750 H 9.580607 13.067018 9.068259 H 0.0 **** 0.0
15751 H 10.16473 14.297437 9.729138 H 0.0 **** 0.0
15752 M 10.256779 13.60175 9.209031 M 0.0 **** 0.0
15753 O 17.847601 17.054335 13.42908 O 0.0 **** 0.0
15754 H 17.504377 17.385098 14.259153 H 0.0 **** 0.0
15755 H 17.070257 16.901129 12.891963 H 0.0 **** 0.0
15756 M 17.704154 17.077064 13.466582 M 0.0 **** 0.0
15757 O 14.145804 35.737649 26.957725 O 0.0 **** 0.0
15758 H 13.673012 35.052295 26.485511 H 0.0 **** 0.0
15759 H 13.478194 36.16211 27.496574 H 0.0 **** 0.0
15760 M 13.999818 35.704252 26.966255 M 0.0 **** 0.0
15761 O 35.60525 9.505867 15.998871 O 0.0 **** 0.0
15762 H 35.150502 9.446656 15.158676 H 0.0 **** 0.0
15763 H 35.607535 8.60934 16.334225 H 0.0 **** 0.0
15764 M 35.547329 9.38352 15.934245 M 0.0 **** 0.0
15765 O 21.145481 28.726046 0.026906 O 0.0 **** 0.0
15766 H 21.464647 27.839273 0.194224 H 0.0 **** 0.0
15767 H 21.936916 29.263266 -0.008505 H 0.0 **** 0.0
15768 M 21.287652 28.681299 0.043791 M 0.0 **** 0.0
15769 O 42.472972 42.535137 28.116176 O 0.0 **** 0.0
15770 H 41.532789 42.386096 28.216527 H 0.0 **** 0.0
15771 H 42.870817 42.056318 28.843279 H 0.0 **** 0.0
15772 M 42.403546 42.454763 28.2221 M 0.0 **** 0.0
15773 O 10.508452 11.531124 6.501331 O 0.0 **** 0.0
15774 H 11.005173 12.237467 6.088323 H 0.0 **** 0.0
15775 H 10.581871 11.703167 7.440075 H 0.0 **** 0.0
15776 M 10.581437 11.643568 6.568632 M 0.0 **** 0.0
15777 O 39.589808 1.049753 29.460981 O 0.0 **** 0.0
15778 H 39.353031 1.977193 29.465613 H 0.0 **** 0.0
15779 H 40.547 1.046439 29.460261 H 0.0 **** 0.0
15780 M 39.68203 1.168053 29.461482 M 0.0 **** 0.0
15781 O 17.598294 8.202349 22.751738 O 0.0 **** 0.0
15782 H 17.080938 7.827695 22.038852 H 0.0 **** 0.0
15783 H 17.713598 7.480481 23.36967 H 0.0 **** 0.0
15784 M 17.546826 8.06198 22.739583 M 0.0 **** 0.0
15785 O 45.296582 24.974692 24.930498 O 0.0 **** 0.0
15786 H 46.132053 24.963886 24.463486 H 0.0 **** 0.0
15787 H 45.318825 24.191462 25.480302 H 0.0 **** 0.0
15788 M 45.40638 24.873045 24.941096 M 0.0 **** 0.0
15789 O 14.232844 34.081566 35.090822 O 0.0 **** 0.0
15790 H 13.525976 34.053039 34.446033 H 0.0 **** 0.0
15791 H 15.03475 34.039978 34.569818 H 0.0 **** 0.0
15792 M 14.24501 34.07259 34.941586 M 0.0 **** 0.0
15793 O 25.387249 24.474507 26.265497 O 0.0 **** 0.0
15794 H 25.536422 23.656864 25.790697 H 0.0 **** 0.0
15795 H 26.156678 25.009315 26.070079 H 0.0 **** 0.0
15796 M 25.504841 24.438301 26.179701 M 0.0 **** 0.0
15797 O 22.612166 10.196011 0.458133 O 0.0 **** 0.0
15798 H 22.844283 9.267543 0.440897 H 0.0 **** 0.0
15799 H 21.655478 10.203693 0.488423 H 0.0 **** 0.0
15800 M 22.519412 10.078139 0.459804 M 0.0 **** 0.0
15801 O 15.022617 15.860677 45.414842 O 0.0 **** 0.0
15802 H 15.382303 15.374804 44.672694 H 0.0 **** 0.0
15803 H 15.559428 16.651475 45.466818 H 0.0 **** 0.0
15804 M 15.13738 15.899711 45.326491 M 0.0 **** 0.0
15805 O 8.392485 32.692406 46.784665 O 0.0 **** 0.0
15806 H 8.255539 32.24783 47.621221 H 0.0 **** 0.0
15807 H 7.513846 32.943262 46.499544 H 0.0 **** 0.0
15808 M 8.262478 32.667607 46.855255 M 0.0 **** 0.0
15809 O 18.938793 33.252888 31.647616 O 0.0 **** 0.0
15810 H 19.338938 32.434001 31.940083 H 0.0 **** 0.0
15811 H 18.011825 33.041136 31.537526 H 0.0 **** 0.0
15812 M 18.871353 33.120953 31.670962 M 0.0 **** 0.0
15813 O 41.865558 2.209267 10.778163 O 0.0 **** 0.0
15814 H 42.182611 1.833128 9.957051 H 0.0 **** 0.0
15815 H 41.188526 2.831202 10.511608 H 0.0 **** 0.0
15816 M 41.819476 2.240732 10.638928 M 0.0 **** 0.0
15817 O 12.901676 45.616471 21.229631 O 0.0 **** 0.0
15818 H 12.061145 45.456188 21.658636 H 0.0 **** 0.0
15819 H 13.34368 44.76754 21.242991 H 0.0 **** 0.0
15820 M 12.85066 45.487279 21.286259 M 0.0 **** 0.0
15821 O 7.085136 32.510003 15.970193 O 0.0 **** 0.0
15822 H 8.028241 32.346631 15.979729 H 0.0 **** 0.0
15823 H 6.803598 32.239839 15.096136 H 0.0 **** 0.0
15824 M 7.169825 32.454505 15.859524 M 0.0 **** 0.0
15825 O 0.596746 31.357718 12.963143 O 0.0 **** 0.0
15826 H 1.553376 31.351648 12.930708 H 0.0 **** 0.0
15827 H 0.385488 31.918044 13.709892 H 0.0 **** 0.0
15828 M 0.692163 31.42867 13.054584 M 0.0 **** 0.0
15829 O 12.926412 2.504652 17.511566 O 0.0 **** 0.0
15830 H 13.02959 1.58209 17.278191 H 0.0 **** 0.0
15831 H 11.989344 2.606743 17.678029 H 0.0 **** 0.0
15832 M 12.819664 2.399621 17.503 M 0.0 **** 0.0
15833 O 28.197474 6.288703 37.635995 O 0.0 **** 0.0
15834 H 28.133515 6.98012 36.977147 H 0.0 **** 0.0
15835 H 29.105022 5.989208 37.582259 H 0.0 **** 0.0
15836 M 28.305464 6.338874 37.544775 M 0.0 **** 0.0
15837 O 30.0648 30.180773 8.439542 O 0.0 **** 0.0
15838 H 29.332463 30.779532 8.585824 H 0.0 **** 0.0
15839 H 30.84503 30.716038 8.584322 H 0.0 **** 0.0
15840 M 30.070931 30.325942 8.476802 M 0.0 **** 0.0
15841 O 31.777803 33.47233 23.990023 O 0.0 **** 0.0
15842 H 32.508902 33.886814 24.448201 H 0.0 **** 0.0
15843 H 31.264051 34.203502 23.646983 H 0.0 **** 0.0
15844 M 31.805626 33.618989 24.004762 M 0.0 **** 0.0
15845 O 9.637626 36.399897 41.373507 O 0.0 **** 0.0
15846 H 10.142227 36.551629 42.172622 H 0.0 **** 0.0
15847 H 10.2317 35.911455 40.803657 H 0.0 **** 0.0
15848 M 9.778271 36.356794 41.402856 M 0.0 **** 0.0
15849 O 42.277553 6.790209 28.392988 O 0.0 **** 0.0
15850 H 41.671085 6.050221 28.363976 H 0.0 **** 0.0
15851 H 43.14644 6.388642 28.390283 H 0.0 **** 0.0
15852 M 42.311146 6.644076 28.388928 M 0.0 **** 0.0
15853 O 23.966188 29.745795 18.925381 O 0.0 **** 0.0
15854 H 23.049653 29.70375 18.652573 H 0.0 **** 0.0
15855 H 24.400676 30.241494 18.231312 H 0.0 **** 0.0
15856 M 23.90448 29.803868 18.801608 M 0.0 **** 0.0
15857 O 31.060007 7.42709 43.309288 O 0.0 **** 0.0
15858 H 30.574952 7.912845 42.642211 H 0.0 **** 0.0
15859 H 30.46854 7.396218 44.061248 H 0.0 **** 0.0
15860 M 30.922198 7.485321 43.320154 M 0.0 **** 0.0
15861 O 5.298011 38.113388 12.669834 O 0.0 **** 0.0
15862 H 4.729399 37.349097 12.763468 H 0.0 **** 0.0
15863 H 5.486932 38.383495 13.568488 H 0.0 **** 0.0
15864 M 5.249406 38.050126 12.796859 M 0.0 **** 0.0
15865 O 24.81965 0.781468 26.914477 O 0.0 **** 0.0
15866 H 25.627743 0.45268 26.520633 H 0.0 **** 0.0
15867 H 24.381611 -7.9e-05 27.251424 H 0.0 **** 0.0
15868 M 24.867022 0.639331 26.907193 M 0.0 **** 0.0
15869 O 18.948916 13.72648 29.217522 O 0.0 **** 0.0
15870 H 19.150674 12.792022 29.169456 H 0.0 **** 0.0
15871 H 18.014888 13.781041 29.015427 H 0.0 **** 0.0
15872 M 18.855176 13.613842 29.185498 M 0.0 **** 0.0
15873 O 8.23404 44.033249 3.814091 O 0.0 **** 0.0
15874 H 8.163857 44.902646 4.208365 H 0.0 **** 0.0
15875 H 7.334872 43.705662 3.793749 H 0.0 **** 0.0
15876 M 8.109951 44.102608 3.861959 M 0.0 **** 0.0
15877 O 11.137456 6.723519 9.210028 O 0.0 **** 0.0
15878 H 10.59896 7.421804 8.837672 H 0.0 **** 0.0
15879 H 11.99861 6.845501 8.810324 H 0.0 **** 0.0
15880 M 11.17876 6.828523 9.111194 M 0.0 **** 0.0
15881 O 7.661582 35.821534 16.652724 O 0.0 **** 0.0
15882 H 8.222631 35.103779 16.946461 H 0.0 **** 0.0
15883 H 8.093752 36.158167 15.867781 H 0.0 **** 0.0
15884 M 7.788727 35.772746 16.589844 M 0.0 **** 0.0
15885 O 47.463872 28.327427 4.260825 O 0.0 **** 0.0
15886 H 47.601511 27.380913 4.223487 H 0.0 **** 0.0
15887 H 47.753226 28.577589 5.138277 H 0.0 **** 0.0
15888 M 47.518533 28.238286 4.36837 M 0.0 **** 0.0
15889 O 20.061756 6.289454 6.25234 O 0.0 **** 0.0
15890 H 19.802854 6.854969 6.979933 H 0.0 **** 0.0
15891 H 19.807915 5.409384 6.530317 H 0.0 **** 0.0
15892 M 19.996118 6.249187 6.381066 M 0.0 **** 0.0
15893 O 41.535288 30.271069 7.572934 O 0.0 **** 0.0
15894 H 42.372032 30.431675 7.136708 H 0.0 **** 0.0
15895 H 41.694197 29.502956 8.12155 H 0.0 **** 0.0
15896 M 41.662744 30.1933 7.587322 M 0.0 **** 0.0
15897 O 31.928125 29.128642 43.386645 O 0.0 **** 0.0
15898 H 31.020706 28.853096 43.516618 H 0.0 **** 0.0
15899 H 31.862463 30.030589 43.072943 H 0.0 **** 0.0
15900 M 31.803559 29.208829 43.363125 M 0.0 **** 0.0
15901 O 14.809908 40.58696 43.246388 O 0.0 **** 0.0
15902 H 14.788588 39.63348 43.327935 H 0.0 **** 0.0
15903 H 15.715779 40.824558 43.444313 H 0.0 **** 0.0
15904 M 14.923141 40.495318 43.282164 M 0.0 **** 0.0
15905 O 1.825982 17.580836 2.542281 O 0.0 **** 0.0
15906 H 1.225298 18.323369 2.478616 H 0.0 **** 0.0
15907 H 1.862702 17.225045 1.654422 H 0.0 **** 0.0
15908 M 1.753787 17.630344 2.420474 M 0.0 **** 0.0
15909 O 17.327333 10.533138 11.095431 O 0.0 **** 0.0
15910 H 16.753189 10.972913 10.468386 H 0.0 **** 0.0
15911 H 18.026476 11.164667 11.264542 H 0.0 **** 0.0
15912 M 17.343334 10.670278 11.03681 M 0.0 **** 0.0
15913 O 4.125723 37.70039 30.579365 O 0.0 **** 0.0
15914 H 3.21367 37.903768 30.786788 H 0.0 **** 0.0
15915 H 4.131474 36.756052 30.423091 H 0.0 **** 0.0
15916 M 4.009705 37.605538 30.585913 M 0.0 **** 0.0
15917 O 17.71662 46.991533 9.092935 O 0.0 **** 0.0
15918 H 16.759423 46.989633 9.092698 H 0.0 **** 0.0
15919 H 17.958448 46.065386 9.093163 H 0.0 **** 0.0
15920 M 17.625043 46.872731 9.092934 M 0.0 **** 0.0
15921 O 36.994452 40.410447 42.230231 O 0.0 **** 0.0
15922 H 36.554182 39.584223 42.429595 H 0.0 **** 0.0
15923 H 36.295325 41.064118 42.243052 H 0.0 **** 0.0
15924 M 36.848595 40.388358 42.257393 M 0.0 **** 0.0
15925 O 16.980886 29.136688 12.991867 O 0.0 **** 0.0
15926 H 17.918526 29.312754 13.06971 H 0.0 **** 0.0
15927 H 16.900358 28.194683 13.141433 H 0.0 **** 0.0
15928 M 17.090607 29.038638 13.020978 M 0.0 **** 0.0
15929 O 27.219703 46.71525 11.399947 O 0.0 **** 0.0
15930 H 26.456957 46.559739 10.842934 H 0.0 **** 0.0
15931 H 27.696558 45.885334 11.391077 H 0.0 **** 0.0
15932 M 27.183105 46.589103 11.327507 M 0.0 **** 0.0
15933 O 9.381802 48.001668 9.43362 O 0.0 **** 0.0
15934 H 9.127159 47.116613 9.17273 H 0.0 **** 0.0
15935 H 10.338092 47.998328 9.392075 H 0.0 **** 0.0
15936 M 9.471621 47.887942 9.394904 M 0.0 **** 0.0
15937 O 22.098547 40.894472 44.366079 O 0.0 **** 0.0
15938 H 22.390154 40.209037 44.967222 H 0.0 **** 0.0
15939 H 22.907604 41.259845 44.008087 H 0.0 **** 0.0
15940 M 22.239446 40.8535 44.397205 M 0.0 **** 0.0
15941 O 16.508508 30.169345 38.822564 O 0.0 **** 0.0
15942 H 16.809924 29.561902 39.49813 H 0.0 **** 0.0
15943 H 15.556503 30.18457 38.920969 H 0.0 **** 0.0
15944 M 16.425225 30.093534 38.921642 M 0.0 **** 0.0
15945 O 1.029793 46.486103 22.435685 O 0.0 **** 0.0
15946 H 0.416237 46.049261 23.026402 H 0.0 **** 0.0
15947 H 0.472991 46.917995 21.787866 H 0.0 **** 0.0
15948 M 0.879972 46.485469 22.428375 M 0.0 **** 0.0
15949 O 13.450223 6.653898 39.788969 O 0.0 **** 0.0
15950 H 12.932613 6.983602 39.054391 H 0.0 **** 0.0
15951 H 13.257357 7.255859 40.50777 H 0.0 **** 0.0
15952 M 13.359273 6.773163 39.786949 M 0.0 **** 0.0
15953 O 39.69344 42.469315 13.311048 O 0.0 **** 0.0
15954 H 40.061044 43.314153 13.051538 H 0.0 **** 0.0
15955 H 38.756978 42.549172 13.129694 H 0.0 **** 0.0
15956 M 39.620619 42.587688 13.254612 M 0.0 **** 0.0
15957 O 4.068287 45.419214 39.686667 O 0.0 **** 0.0
15958 H 3.860611 45.960365 40.448412 H 0.0 **** 0.0
15959 H 4.623744 45.975958 39.141019 H 0.0 **** 0.0
15960 M 4.112807 45.559759 39.71433 M 0.0 **** 0.0
15961 O 22.60176 35.519445 18.769011 O 0.0 **** 0.0
15962 H 23.082152 36.341781 18.865011 H 0.0 **** 0.0
15963 H 22.906486 34.977151 19.496533 H 0.0 **** 0.0
15964 M 22.702265 35.555294 18.874432 M 0.0 **** 0.0
15965 O 34.91002 1.068269 38.656761 O 0.0 **** 0.0
15966 H 34.332355 0.305166 38.642418 H 0.0 **** 0.0
15967 H 34.943354 1.326756 39.577794 H 0.0 **** 0.0
15968 M 34.840338 1.003672 38.772829 M 0.0 **** 0.0
15969 O 38.9161 0.949487 9.624955 O 0.0 **** 0.0
15970 H 39.794493 1.305032 9.760018 H 0.0 **** 0.0
15971 H 39.028063 0.001239 9.692169 H 0.0 **** 0.0
15972 M 39.042878 0.873614 9.650849 M 0.0 **** 0.0
15973 O 43.173486 47.532397 3.285214 O 0.0 **** 0.0
15974 H 42.264824 47.822114 3.203811 H 0.0 **** 0.0
15975 H 43.116275 46.579391 3.354024 H 0.0 **** 0.0
15976 M 43.049842 47.447488 3.283602 M 0.0 **** 0.0
15977 O 30.290674 17.685215 2.588512 O 0.0 **** 0.0
15978 H 31.212866 17.745769 2.837758 H 0.0 **** 0.0
15979 H 29.96249 18.581269 2.663421 H 0.0 **** 0.0
15980 M 30.366715 17.807673 2.630008 M 0.0 **** 0.0
15981 O 30.321021 23.599822 17.250051 O 0.0 **** 0.0
15982 H 30.334667 23.624669 18.206829 H 0.0 **** 0.0
15983 H 30.912062 22.882854 17.020145 H 0.0 **** 0.0
15984 M 30.398428 23.511222 17.343099 M 0.0 **** 0.0
15985 O 34.511163 16.129645 24.209415 O 0.0 **** 0.0
15986 H 34.194995 15.303296 24.574674 H 0.0 **** 0.0
15987 H 33.835577 16.767651 24.439112 H 0.0 **** 0.0
15988 M 34.384206 16.105535 24.285577 M 0.0 **** 0.0
15989 O 24.947032 19.636131 32.660289 O 0.0 **** 0.0
15990 H 24.043591 19.951251 32.633424 H 0.0 **** 0.0
15991 H 24.867729 18.682941 32.697292 H 0.0 **** 0.0
15992 M 24.821229 19.55445 32.661587 M 0.0 **** 0.0
15993 O 38.884922 38.121263 18.657198 O 0.0 **** 0.0
15994 H 38.018237 37.84126 18.362776 H 0.0 **** 0.0
15995 H 38.927571 39.049832 18.428794 H 0.0 **** 0.0
15996 M 38.779435 38.204287 18.59027 M 0.0 **** 0.0
15997 O 35.191522 34.149545 41.375198 O 0.0 **** 0.0
15998 H 34.809108 33.824658 42.190328 H 0.0 **** 0.0
15999 H 36.132583 34.180927 41.547383 H 0.0 **** 0.0
16000 M 35.263036 34.111972 41.501587 M 0.0 **** 0.0
16001 O 11.835773 46.803904 7.452357 O 0.0 **** 0.0
16002 H 11.822011 47.73069 7.213385 H 0.0 **** 0.0
16003 H 10.955641 46.628859 7.785455 H 0.0 **** 0.0
16004 M 11.721344 46.900136 7.464406 M 0.0 **** 0.0
16005 O 9.913449 20.304221 39.118161 O 0.0 **** 0.0
16006 H 9.068556 20.630086 38.808005 H 0.0 **** 0.0
16007 H 10.202812 19.699353 38.435055 H 0.0 **** 0.0
16008 M 9.842334 20.268505 38.991011 M 0.0 **** 0.0
16009 O 20.64295 9.521075 8.707842 O 0.0 **** 0.0
16010 H 21.159913 8.866806 9.177853 H 0.0 **** 0.0
16011 H 21.117778 10.341748 8.839232 H 0.0 **** 0.0
16012 M 20.769912 9.542377 8.784829 M 0.0 **** 0.0
16013 O 10.614113 39.9231 38.925015 O 0.0 **** 0.0
16014 H 11.300309 39.752682 39.570245 H 0.0 **** 0.0
16015 H 10.947914 40.655926 38.407549 H 0.0 **** 0.0
16016 M 10.744685 39.995095 38.94137 M 0.0 **** 0.0
16017 O 47.680034 30.3966 24.74851 O 0.0 **** 0.0
16018 H 47.127367 30.941871 24.188629 H 0.0 **** 0.0
16019 H 48.00126 29.705822 24.168969 H 0.0 **** 0.0
16020 M 47.650407 30.377973 24.60265 M 0.0 **** 0.0
16021 O 24.190267 47.9995 42.745462 O 0.0 **** 0.0
16022 H 24.387078 47.097756 42.999138 H 0.0 **** 0.0
16023 H 23.253728 47.994221 42.547737 H 0.0 **** 0.0
16024 M 24.095573 47.88339 42.752625 M 0.0 **** 0.0
16025 O 7.686201 21.76309 12.063602 O 0.0 **** 0.0
16026 H 7.831002 21.931091 11.132454 H 0.0 **** 0.0
16027 H 8.412753 22.204977 12.503018 H 0.0 **** 0.0
16028 M 7.797745 21.841163 12.000654 M 0.0 **** 0.0
16029 O 3.698479 28.70605 19.535188 O 0.0 **** 0.0
16030 H 4.099735 29.169857 18.80027 H 0.0 **** 0.0
16031 H 3.45008 29.397617 20.14859 H 0.0 **** 0.0
16032 M 3.718046 28.853953 19.519633 M 0.0 **** 0.0
16033 O 0.657605 1.201717 13.346518 O 0.0 **** 0.0
16034 H 0.053931 1.311068 14.081262 H 0.0 **** 0.0
16035 H 0.83206 2.093121 13.044536 H 0.0 **** 0.0
16036 M 0.602659 1.329826 13.401917 M 0.0 **** 0.0
16037 O 44.106583 37.274456 25.172518 O 0.0 **** 0.0
16038 H 44.800773 37.904748 24.980004 H 0.0 **** 0.0
16039 H 44.478724 36.426316 24.930863 H 0.0 **** 0.0
16040 M 44.243087 37.246569 25.116939 M 0.0 **** 0.0
16041 O 23.351947 43.086401 19.627391 O 0.0 **** 0.0
16042 H 23.27674 42.269611 19.134008 H 0.0 **** 0.0
16043 H 24.214008 43.429978 19.392796 H 0.0 **** 0.0
16044 M 23.452674 43.025823 19.534201 M 0.0 **** 0.0
16045 O 12.283094 1.125874 5.656115 O 0.0 **** 0.0
16046 H 12.002863 1.560744 6.461465 H 0.0 **** 0.0
16047 H 12.749546 1.803773 5.167133 H 0.0 **** 0.0
16048 M 12.306933 1.268322 5.696615 M 0.0 **** 0.0
16049 O 8.501964 15.518697 40.755896 O 0.0 **** 0.0
16050 H 9.455724 15.529976 40.675631 H 0.0 **** 0.0
16051 H 8.271369 16.414063 41.003633 H 0.0 **** 0.0
16052 M 8.594538 15.634759 40.777334 M 0.0 **** 0.0
16053 O 0.596604 38.874453 31.112536 O 0.0 **** 0.0
16054 H 0.000781 38.1254 31.124538 H 0.0 **** 0.0
16055 H 0.020816 39.638769 31.089774 H 0.0 **** 0.0
16056 M 0.446623 38.876407 31.111158 M 0.0 **** 0.0
16057 O 16.923141 26.774064 5.17771 O 0.0 **** 0.0
16058 H 17.716831 26.934516 4.667278 H 0.0 **** 0.0
16059 H 17.211658 26.218331 5.90169 H 0.0 **** 0.0
16060 M 17.061677 26.723463 5.205047 M 0.0 **** 0.0
16061 O 8.987387 2.833258 32.063052 O 0.0 **** 0.0
16062 H 8.73817 3.584659 31.524985 H 0.0 **** 0.0
16063 H 9.941024 2.79248 31.991341 H 0.0 **** 0.0
16064 M 9.077562 2.924227 31.984992 M 0.0 **** 0.0
16065 O 36.962232 31.55925 44.840749 O 0.0 **** 0.0
16066 H 36.159865 31.089106 45.067466 H 0.0 **** 0.0
16067 H 37.639728 30.883285 44.823463 H 0.0 **** 0.0
16068 M 36.946247 31.412534 44.867559 M 0.0 **** 0.0
16069 O 9.713248 6.397902 18.583082 O 0.0 **** 0.0
16070 H 10.264679 7.175069 18.492726 H 0.0 **** 0.0
16071 H 8.837271 6.743753 18.754191 H 0.0 **** 0.0
16072 M 9.671702 6.541662 18.593419 M 0.0 **** 0.0
16073 O 45.658199 9.373375 13.224011 O 0.0 **** 0.0
16074 H 45.534817 8.781256 12.48212 H 0.0 **** 0.0
16075 H 46.607489 9.422568 13.336514 H 0.0 **** 0.0
16076 M 45.763925 9.303873 13.143442 M 0.0 **** 0.0
16077 O 15.441032 12.876242 19.701836 O 0.0 **** 0.0
16078 H 16.109907 12.709149 19.037823 H 0.0 **** 0.0
16079 H 15.81256 13.569271 20.247644 H 0.0 **** 0.0
16080 M 15.574216 12.943569 19.686705 M 0.0 **** 0.0
16081 O 45.621287 2.839879 36.338776 O 0.0 **** 0.0
16082 H 45.125159 3.041686 35.545454 H 0.0 **** 0.0
16083 H 45.024261 2.309896 36.866891 H 0.0 **** 0.0
16084 M 45.48135 2.797869 36.304826 M 0.0 **** 0.0
16085 O 41.555981 16.472279 19.432517 O 0.0 **** 0.0
16086 H 42.062004 17.165018 19.00792 H 0.0 **** 0.0
16087 H 40.933133 16.186124 18.764381 H 0.0 **** 0.0
16088 M 41.541026 16.524327 19.292633 M 0.0 **** 0.0
16089 O 32.980777 47.458851 29.920721 O 0.0 **** 0.0
16090 H 33.465243 47.238683 30.716363 H 0.0 **** 0.0
16091 H 32.787864 46.613382 29.51551 H 0.0 **** 0.0
16092 M 33.0181 47.322436 29.970701 M 0.0 **** 0.0
16093 O 41.155571 13.945488 45.522119 O 0.0 **** 0.0
16094 H 42.020987 14.273819 45.76601 H 0.0 **** 0.0
16095 H 40.608954 14.72917 45.464825 H 0.0 **** 0.0
16096 M 41.196381 14.08784 45.546006 M 0.0 **** 0.0
16097 O 25.002463 40.625391 43.774036 O 0.0 **** 0.0
16098 H 25.934717 40.506091 43.955419 H 0.0 **** 0.0
16099 H 24.693114 39.754539 43.524737 H 0.0 **** 0.0
16100 M 25.082203 40.498639 43.765342 M 0.0 **** 0.0
16101 O 39.632643 25.534331 42.626869 O 0.0 **** 0.0
16102 H 39.816788 25.705206 43.550514 H 0.0 **** 0.0
16103 H 38.78239 25.094679 42.62901 H 0.0 **** 0.0
16104 M 39.547373 25.499924 42.745381 M 0.0 **** 0.0
16105 O 15.840767 14.473466 25.546054 O 0.0 **** 0.0
16106 H 15.279246 13.723529 25.349798 H 0.0 **** 0.0
16107 H 15.244083 15.221698 25.564614 H 0.0 **** 0.0
16108 M 15.692502 14.473247 25.523307 M 0.0 **** 0.0
16109 O 28.915169 30.938411 0.008895 O 0.0 **** 0.0
16110 H 29.027375 31.889009 0.009736 H 0.0 **** 0.0
16111 H 27.966842 30.8087 -2.4e-05 H 0.0 **** 0.0
16112 M 28.808135 31.043495 0.007861 M 0.0 **** 0.0
16113 O 16.159605 8.825368 16.156995 O 0.0 **** 0.0
16114 H 16.231518 7.870881 16.153753 H 0.0 **** 0.0
16115 H 17.065309 9.134197 16.180518 H 0.0 **** 0.0
16116 M 16.284752 8.742716 16.159591 M 0.0 **** 0.0
16117 O 8.729208 4.970471 20.051562 O 0.0 **** 0.0
16118 H 7.85698 5.286617 20.287142 H 0.0 **** 0.0
16119 H 8.644191 4.017113 20.041073 H 0.0 **** 0.0
16120 M 8.606668 4.8889 20.080376 M 0.0 **** 0.0
16121 O 33.645845 14.6278 36.289901 O 0.0 **** 0.0
16122 H 33.877617 13.786918 35.895657 H 0.0 **** 0.0
16123 H 32.712617 14.550728 36.488329 H 0.0 **** 0.0
16124 M 33.556049 14.510291 36.264834 M 0.0 **** 0.0
16125 O 44.356425 36.931899 47.391952 O 0.0 **** 0.0
16126 H 45.256001 36.799254 47.690946 H 0.0 **** 0.0
16127 H 44.016508 36.047769 47.254114 H 0.0 **** 0.0
16128 M 44.428069 36.801739 47.412582 M 0.0 **** 0.0
16129 O 2.679315 19.620909 24.76528 O 0.0 **** 0.0
16130 H 3.388057 19.109787 25.156007 H 0.0 **** 0.0
16131 H 2.267001 20.065026 25.506216 H 0.0 **** 0.0
16132 M 2.717262 19.612331 24.910147 M 0.0 **** 0.0
16133 O 30.009788 14.746574 5.688009 O 0.0 **** 0.0
16134 H 30.358588 15.607458 5.456823 H 0.0 **** 0.0
16135 H 30.543351 14.129182 5.187643 H 0.0 **** 0.0
16136 M 30.122742 14.777744 5.594361 M 0.0 **** 0.0
16137 O 32.186284 41.902127 19.310594 O 0.0 **** 0.0
16138 H 31.549832 41.200286 19.174298 H 0.0 **** 0.0
16139 H 31.81109 42.433271 20.012979 H 0.0 **** 0.0
16140 M 32.05678 41.880276 19.383061 M 0.0 **** 0.0
16141 O 32.963917 7.249928 39.513648 O 0.0 **** 0.0
16142 H 33.767716 7.108895 40.013894 H 0.0 **** 0.0
16143 H 32.655107 8.111618 39.79357 H 0.0 **** 0.0
16144 M 33.027282 7.342181 39.61352 M 0.0 **** 0.0
16145 O 23.849772 17.568654 8.28679 O 0.0 **** 0.0
16146 H 24.516327 18.236693 8.126611 H 0.0 **** 0.0
16147 H 24.217059 17.025528 8.984172 H 0.0 **** 0.0
16148 M 23.982117 17.584645 8.355559 M 0.0 **** 0.0
16149 O 4.751963 23.569959 22.396193 O 0.0 **** 0.0
16150 H 4.388243 23.553903 23.28145 H 0.0 **** 0.0
16151 H 4.572366 24.455023 22.078963 H 0.0 **** 0.0
16152 M 4.682411 23.681203 22.468908 M 0.0 **** 0.0
16153 O 15.457034 19.767906 32.730422 O 0.0 **** 0.0
16154 H 15.412009 18.927993 32.273534 H 0.0 **** 0.0
16155 H 15.764372 20.385769 32.067083 H 0.0 **** 0.0
16156 M 15.490613 19.739481 32.587019 M 0.0 **** 0.0
16157 O 24.289144 10.1148 37.410615 O 0.0 **** 0.0
16158 H 24.198799 9.204806 37.127813 H 0.0 **** 0.0
16159 H 23.402449 10.379032 37.655934 H 0.0 **** 0.0
16160 M 24.164071 10.032135 37.405816 M 0.0 **** 0.0
16161 O 19.617656 5.9574 10.739398 O 0.0 **** 0.0
16162 H 20.401132 5.972155 10.189693 H 0.0 **** 0.0
16163 H 19.483056 5.031316 10.940593 H 0.0 **** 0.0
16164 M 19.70072 5.840739 10.694784 M 0.0 **** 0.0
16165 O 22.102914 30.838154 16.60298 O 0.0 **** 0.0
16166 H 22.064049 31.349408 15.794687 H 0.0 **** 0.0
16167 H 22.95235 30.398298 16.568124 H 0.0 **** 0.0
16168 M 22.206678 30.847294 16.495046 M 0.0 **** 0.0
16169 O 12.003564 9.305598 28.240091 O 0.0 **** 0.0
16170 H 11.707616 8.40101 28.138289 H 0.0 **** 0.0
16171 H 11.84957 9.506027 29.163315 H 0.0 **** 0.0
16172 M 11.945966 9.215457 28.345244 M 0.0 **** 0.0
16173 O 30.276311 4.563793 21.515319 O 0.0 **** 0.0
16174 H 30.822933 4.252062 22.236607 H 0.0 **** 0.0
16175 H 30.846001 5.151568 21.019131 H 0.0 **** 0.0
16176 M 30.419213 4.59913 21.544134 M 0.0 **** 0.0
16177 O 1.709773 10.115474 1.065165 O 0.0 **** 0.0
16178 H 0.914676 10.592334 1.303187 H 0.0 **** 0.0
16179 H 2.303734 10.789243 0.734295 H 0.0 **** 0.0
16180 M 1.684025 10.262769 1.05328 M 0.0 **** 0.0
16181 O 45.934641 11.210776 35.5244 O 0.0 **** 0.0
16182 H 46.150669 12.143092 35.505763 H 0.0 **** 0.0
16183 H 46.783046 10.768312 35.550154 H 0.0 **** 0.0
16184 M 46.070902 11.273484 35.525311 M 0.0 **** 0.0
16185 O 17.100355 30.342084 11.162037 O 0.0 **** 0.0
16186 H 16.206879 30.661391 11.035656 H 0.0 **** 0.0
16187 H 17.135848 29.52508 10.664571 H 0.0 **** 0.0
16188 M 16.990523 30.278373 11.082176 M 0.0 **** 0.0
16189 O 5.077786 20.053275 36.392239 O 0.0 **** 0.0
16190 H 4.179633 20.376302 36.320102 H 0.0 **** 0.0
16191 H 5.001639 19.242897 36.895943 H 0.0 **** 0.0
16192 M 4.953063 19.990888 36.447485 M 0.0 **** 0.0
16193 O 25.935853 28.300693 0.672884 O 0.0 **** 0.0
16194 H 25.70377 27.876357 1.498902 H 0.0 **** 0.0
16195 H 25.676286 27.672348 -0.000937 H 0.0 **** 0.0
16196 M 25.872916 28.165937 0.692367 M 0.0 **** 0.0
16197 O 37.129485 35.889316 42.511033 O 0.0 **** 0.0
16198 H 37.541511 35.611463 43.329117 H 0.0 **** 0.0
16199 H 37.638131 36.650929 42.232728 H 0.0 **** 0.0
16200 M 37.247343 35.951243 42.580132 M 0.0 **** 0.0
16201 O 38.43126 39.194174 41.089983 O 0.0 **** 0.0
16202 H 38.449438 38.246639 40.955538 H 0.0 **** 0.0
16203 H 39.261012 39.390835 41.524798 H 0.0 **** 0.0
16204 M 38.539806 39.098053 41.128434 M 0.0 **** 0.0
16205 O 24.319291 42.997298 21.609451 O 0.0 **** 0.0
16206 H 24.781392 43.74442 21.989585 H 0.0 **** 0.0
16207 H 24.975642 42.301423 21.574951 H 0.0 **** 0.0
16208 M 24.462467 43.003858 21.653697 M 0.0 **** 0.0
16209 O 16.564918 27.804129 47.441476 O 0.0 **** 0.0
16210 H 16.920476 27.915936 46.559827 H 0.0 **** 0.0
16211 H 16.919067 26.965947 47.73856 H 0.0 **** 0.0
16212 M 16.65577 27.711144 47.366645 M 0.0 **** 0.0
16213 O 22.776067 18.931096 23.20488 O 0.0 **** 0.0
16214 H 22.736969 18.004495 23.441758 H 0.0 **** 0.0
16215 H 21.868727 19.231144 23.259051 H 0.0 **** 0.0
16216 M 22.654911 18.850889 23.242138 M 0.0 **** 0.0
16217 O 10.807018 37.998325 13.863695 O 0.0 **** 0.0
16218 H 10.377226 38.853096 13.834136 H 0.0 **** 0.0
16219 H 10.087283 37.369518 13.916733 H 0.0 **** 0.0
16220 M 10.659864 38.027251 13.8667 M 0.0 **** 0.0
16221 O 31.036325 29.391211 47.247346 O 0.0 **** 0.0
16222 H 30.374301 28.877232 46.784985 H 0.0 **** 0.0
16223 H 30.57792 29.741503 48.011145 H 0.0 **** 0.0
16224 M 30.892896 29.370257 47.285933 M 0.0 **** 0.0
16225 O 9.961941 12.615995 24.931551 O 0.0 **** 0.0
16226 H 9.52613 13.259159 24.372411 H 0.0 **** 0.0
16227 H 9.259609 12.250695 25.469617 H 0.0 **** 0.0
16228 M 9.816244 12.651565 24.928854 M 0.0 **** 0.0
16229 O 20.08939 14.166595 14.923017 O 0.0 **** 0.0
16230 H 20.470897 13.374109 15.300704 H 0.0 **** 0.0
16231 H 19.168436 14.136636 15.1822 H 0.0 **** 0.0
16232 M 20.020334 14.061312 15.004545 M 0.0 **** 0.0
16233 O 43.144487 44.308674 42.526403 O 0.0 **** 0.0
16234 H 43.327802 45.142615 42.959031 H 0.0 **** 0.0
16235 H 43.576082 44.380021 41.675014 H 0.0 **** 0.0
16236 M 43.223203 44.424562 42.472797 M 0.0 **** 0.0
16237 O 5.485138 24.493434 39.555406 O 0.0 **** 0.0
16238 H 5.237977 25.237428 39.006213 H 0.0 **** 0.0
16239 H 4.785469 24.432304 40.205756 H 0.0 **** 0.0
16240 M 5.363932 24.580849 39.568355 M 0.0 **** 0.0
16241 O 26.657342 19.583422 8.630425 O 0.0 **** 0.0
16242 H 27.016243 20.152971 7.94996 H 0.0 **** 0.0
16243 H 26.470201 20.171856 9.361829 H 0.0 **** 0.0
16244 M 26.679329 19.731658 8.636946 M 0.0 **** 0.0
16245 O 43.416857 28.305064 19.271315 O 0.0 **** 0.0
16246 H 43.532853 27.429297 19.639834 H 0.0 **** 0.0
16247 H 42.468031 28.424954 19.23153 H 0.0 **** 0.0
16248 M 43.310245 28.208302 19.313397 M 0.0 **** 0.0
16249 O 12.987982 32.4465 6.80908 O 0.0 **** 0.0
16250 H 12.94533 32.641716 7.745189 H 0.0 **** 0.0
16251 H 13.906679 32.229282 6.65084 H 0.0 **** 0.0
16252 M 13.100127 32.443683 6.908657 M 0.0 **** 0.0
16253 O 38.512571 29.94564 35.416812 O 0.0 **** 0.0
16254 H 37.825374 29.281483 35.363117 H 0.0 **** 0.0
16255 H 38.042062 30.779157 35.406831 H 0.0 **** 0.0
16256 M 38.36437 29.96732 35.408661 M 0.0 **** 0.0
16257 O 29.881441 27.833983 4.859997 O 0.0 **** 0.0
16258 H 30.501486 28.556531 4.761522 H 0.0 **** 0.0
16259 H 29.986924 27.316717 4.061537 H 0.0 **** 0.0
16260 M 29.974318 27.860262 4.745178 M 0.0 **** 0.0
16261 O -0.004193 15.785575 28.890851 O 0.0 **** 0.0
16262 H 0.834187 16.24708 28.909835 H 0.0 **** 0.0
16263 H 0.198809 14.905948 29.209088 H 0.0 **** 0.0
16264 M 0.129117 15.73205 28.93402 M 0.0 **** 0.0
16265 O 31.724977 40.527065 0.59141 O 0.0 **** 0.0
16266 H 32.013025 41.433908 0.69578 H 0.0 **** 0.0
16267 H 30.974224 40.580284 0.0 H 0.0 **** 0.0
16268 M 31.665745 40.649965 0.529063 M 0.0 **** 0.0
16269 O 22.646062 37.293914 39.196571 O 0.0 **** 0.0
16270 H 22.357561 36.405999 39.407761 H 0.0 **** 0.0
16271 H 21.835801 37.79784 39.120642 H 0.0 **** 0.0
16272 M 22.505407 37.244759 39.213886 M 0.0 **** 0.0
16273 O 47.242686 25.102886 46.684954 O 0.0 **** 0.0
16274 H 48.000413 25.490281 46.246771 H 0.0 **** 0.0
16275 H 47.578648 24.81153 47.53258 H 0.0 **** 0.0
16276 M 47.382692 25.11518 46.737368 M 0.0 **** 0.0
16277 O 14.273378 29.821712 33.125142 O 0.0 **** 0.0
16278 H 14.519033 30.704254 32.84765 H 0.0 **** 0.0
16279 H 14.70242 29.24364 32.494282 H 0.0 **** 0.0
16280 M 14.359748 29.860688 33.008862 M 0.0 **** 0.0
16281 O 39.809488 27.299817 38.891481 O 0.0 **** 0.0
16282 H 40.562265 26.920932 39.345355 H 0.0 **** 0.0
16283 H 40.163076 28.064679 38.437399 H 0.0 **** 0.0
16284 M 39.951117 27.349227 38.891454 M 0.0 **** 0.0
16285 O 35.169968 12.350067 34.406242 O 0.0 **** 0.0
16286 H 35.848178 12.71873 34.972234 H 0.0 **** 0.0
16287 H 34.984934 11.489614 34.782555 H 0.0 **** 0.0
16288 M 35.2331 12.287112 34.526869 M 0.0 **** 0.0
16289 O 15.745627 31.060649 25.320035 O 0.0 **** 0.0
16290 H 15.015855 31.363175 25.860534 H 0.0 **** 0.0
16291 H 15.808703 30.123552 25.504697 H 0.0 **** 0.0
16292 M 15.660282 30.979416 25.412864 M 0.0 **** 0.0
16293 O 39.360555 45.074893 25.440471 O 0.0 **** 0.0
16294 H 39.307016 45.938928 25.032052 H 0.0 **** 0.0
16295 H 38.560541 44.628409 25.163238 H 0.0 **** 0.0
16296 M 39.25129 45.128345 25.352699 M 0.0 **** 0.0
16297 O 9.276539 18.769232 2.413867 O 0.0 **** 0.0
16298 H 8.666768 18.375742 1.789709 H 0.0 **** 0.0
16299 H 10.070456 18.239613 2.340185 H 0.0 **** 0.0
16300 M 9.300112 18.651063 2.324535 M 0.0 **** 0.0
16301 O 20.415338 25.9587 22.951204 O 0.0 **** 0.0
16302 H 21.258538 26.331912 23.208024 H 0.0 **** 0.0
16303 H 20.030016 25.649565 23.771077 H 0.0 **** 0.0
16304 M 20.473952 25.966903 23.089034 M 0.0 **** 0.0
16305 O 3.422336 1.762595 21.404925 O 0.0 **** 0.0
16306 H 2.754319 1.244046 20.956497 H 0.0 **** 0.0
16307 H 3.195351 2.670776 21.205143 H 0.0 **** 0.0
16308 M 3.307765 1.812473 21.321946 M 0.0 **** 0.0
16309 O 0.721204 8.515025 45.061485 O 0.0 **** 0.0
16310 H -0.001749 9.138778 44.994407 H 0.0 **** 0.0
16311 H 0.791836 8.329301 45.997832 H 0.0 **** 0.0
16312 M 0.637699 8.571099 45.172762 M 0.0 **** 0.0
16313 O 9.846951 22.003697 41.544858 O 0.0 **** 0.0
16314 H 10.518043 21.343116 41.716605 H 0.0 **** 0.0
16315 H 10.317017 22.83696 41.575501 H 0.0 **** 0.0
16316 M 9.993033 22.025802 41.570767 M 0.0 **** 0.0
16317 O 27.007289 9.383793 37.451227 O 0.0 **** 0.0
16318 H 26.813266 8.74357 36.766612 H 0.0 **** 0.0
16319 H 26.250455 9.346568 38.036072 H 0.0 **** 0.0
16320 M 26.885568 9.297071 37.438455 M 0.0 **** 0.0
16321 O 32.18561 26.471935 3.796641 O 0.0 **** 0.0
16322 H 32.178389 27.422944 3.905073 H 0.0 **** 0.0
16323 H 32.646751 26.328104 2.97027 H 0.0 **** 0.0
16324 M 32.243717 26.575264 3.704736 M 0.0 **** 0.0
16325 O 40.035495 7.7392 26.743417 O 0.0 **** 0.0
16326 H 39.814879 6.860397 27.052063 H 0.0 **** 0.0
16327 H 40.935339 7.878375 27.038611 H 0.0 **** 0.0
16328 M 40.122445 7.644518 26.820716 M 0.0 **** 0.0
16329 O 10.900876 30.577291 18.069495 O 0.0 **** 0.0
16330 H 10.166782 30.915222 17.556526 H 0.0 **** 0.0
16331 H 11.08289 31.265025 18.709902 H 0.0 **** 0.0
16332 M 10.830203 30.708589 18.085809 M 0.0 **** 0.0
16333 O 46.011638 35.382255 16.369264 O 0.0 **** 0.0
16334 H 46.889465 35.507351 16.008708 H 0.0 **** 0.0
16335 H 45.509494 36.128965 16.042916 H 0.0 **** 0.0
16336 M 46.05973 35.493857 16.281331 M 0.0 **** 0.0
16337 O 39.514608 22.53483 18.957506 O 0.0 **** 0.0
16338 H 39.904768 21.674207 19.110254 H 0.0 **** 0.0
16339 H 39.413602 22.911138 19.831816 H 0.0 **** 0.0
16340 M 39.551623 22.472832 19.088982 M 0.0 **** 0.0
16341 O 0.804858 18.548214 21.936772 O 0.0 **** 0.0
16342 H 1.35032 19.113669 22.483545 H 0.0 **** 0.0
16343 H 0.660624 19.054265 21.137185 H 0.0 **** 0.0
16344 M 0.85622 18.68538 21.904408 M 0.0 **** 0.0
16345 O 33.292138 21.27002 7.424235 O 0.0 **** 0.0
16346 H 34.132148 21.697274 7.591764 H 0.0 **** 0.0
16347 H 33.476897 20.643443 6.724596 H 0.0 **** 0.0
16348 M 33.423321 21.244504 7.356118 M 0.0 **** 0.0
16349 O 24.481665 31.927481 20.33902 O 0.0 **** 0.0
16350 H 24.234693 32.079085 19.426743 H 0.0 **** 0.0
16351 H 25.263685 31.377891 20.287786 H 0.0 **** 0.0
16352 M 24.550158 31.876534 20.215678 M 0.0 **** 0.0
16353 O 32.632703 38.573172 3.971112 O 0.0 **** 0.0
16354 H 32.153761 37.868599 3.534741 H 0.0 **** 0.0
16355 H 33.474564 38.182187 4.204843 H 0.0 **** 0.0
16356 M 32.679161 38.432927 3.945171 M 0.0 **** 0.0
16357 O 18.511257 27.928943 19.073096 O 0.0 **** 0.0
16358 H 18.729514 28.661303 18.496693 H 0.0 **** 0.0
16359 H 19.168674 27.966138 19.767825 H 0.0 **** 0.0
16360 M 18.623354 28.027456 19.088243 M 0.0 **** 0.0
16361 O 38.911351 42.536719 0.195355 O 0.0 **** 0.0
16362 H 39.057451 42.749733 1.117043 H 0.0 **** 0.0
16363 H 38.046315 42.896956 -1.7e-05 H 0.0 **** 0.0
16364 M 38.819318 42.610102 0.288333 M 0.0 **** 0.0
16365 O 17.271429 10.939405 44.97841 O 0.0 **** 0.0
16366 H 17.825981 10.270322 44.577126 H 0.0 **** 0.0
16367 H 16.574801 10.445799 45.411181 H 0.0 **** 0.0
16368 M 17.253241 10.790566 44.982441 M 0.0 **** 0.0
16369 O 12.560474 3.99729 5.617031 O 0.0 **** 0.0
16370 H 12.25765 3.989557 4.709029 H 0.0 **** 0.0
16371 H 13.502416 3.837919 5.557237 H 0.0 **** 0.0
16372 M 12.642289 3.975898 5.493141 M 0.0 **** 0.0
16373 O 22.78318 42.115667 15.663609 O 0.0 **** 0.0
16374 H 21.973901 42.178003 16.170965 H 0.0 **** 0.0
16375 H 22.918062 41.175927 15.541444 H 0.0 **** 0.0
16376 M 22.696849 42.003348 15.712918 M 0.0 **** 0.0
16377 O 35.453993 36.959761 4.162485 O 0.0 **** 0.0
16378 H 35.492308 36.627731 3.265536 H 0.0 **** 0.0
16379 H 35.27966 36.185585 4.697731 H 0.0 **** 0.0
16380 M 35.436581 36.818153 4.116182 M 0.0 **** 0.0
16381 O 10.324159 15.477812 34.354033 O 0.0 **** 0.0
16382 H 10.387963 16.395186 34.088358 H 0.0 **** 0.0
16383 H 9.384036 15.299171 34.376064 H 0.0 **** 0.0
16384 M 10.211979 15.572379 34.322843 M 0.0 **** 0.0
16385 O 1.059242 33.972475 27.143956 O 0.0 **** 0.0
16386 H 0.508916 33.396824 26.612924 H 0.0 **** 0.0
16387 H 0.494881 34.71618 27.355214 H 0.0 **** 0.0
16388 M 0.916548 33.993988 27.103021 M 0.0 **** 0.0
16389 O 10.306447 39.385888 45.638538 O 0.0 **** 0.0
16390 H 10.39714 38.508733 45.266243 H 0.0 **** 0.0
16391 H 9.373662 39.466895 45.837481 H 0.0 **** 0.0
16392 M 10.198649 39.283971 45.616347 M 0.0 **** 0.0
16393 O 10.195687 42.340343 45.306028 O 0.0 **** 0.0
16394 H 11.041239 42.77666 45.410423 H 0.0 **** 0.0
16395 H 10.407772 41.500107 44.899517 H 0.0 **** 0.0
16396 M 10.331078 42.288636 45.267353 M 0.0 **** 0.0
16397 O 44.312708 33.951334 25.75842 O 0.0 **** 0.0
16398 H 44.802372 33.733778 26.551596 H 0.0 **** 0.0
16399 H 43.641151 33.272015 25.697058 H 0.0 **** 0.0
16400 M 44.289424 33.836523 25.852101 M 0.0 **** 0.0
16401 O 22.62853 3.915249 45.243475 O 0.0 **** 0.0
16402 H 23.353917 3.656763 45.812005 H 0.0 **** 0.0
16403 H 22.32795 3.095878 44.850395 H 0.0 **** 0.0
16404 M 22.682911 3.77727 45.265935 M 0.0 **** 0.0
16405 O 23.059809 21.394982 38.205706 O 0.0 **** 0.0
16406 H 23.425603 21.744228 39.018387 H 0.0 **** 0.0
16407 H 22.814234 22.170025 37.700504 H 0.0 **** 0.0
16408 M 23.075199 21.538906 38.245067 M 0.0 **** 0.0
16409 O 37.127518 10.148051 10.343155 O 0.0 **** 0.0
16410 H 36.938839 11.0595 10.119797 H 0.0 **** 0.0
16411 H 37.589882 10.19677 11.179859 H 0.0 **** 0.0
16412 M 37.162553 10.270964 10.421671 M 0.0 **** 0.0
16413 O 31.418038 34.652357 34.224972 O 0.0 **** 0.0
16414 H 32.335205 34.381887 34.181614 H 0.0 **** 0.0
16415 H 30.9273 33.831425 34.263388 H 0.0 **** 0.0
16416 M 31.472627 34.512644 34.22434 M 0.0 **** 0.0
16417 O 39.896049 17.662351 43.521624 O 0.0 **** 0.0
16418 H 40.080431 18.526083 43.152574 H 0.0 **** 0.0
16419 H 39.242433 17.826374 44.201411 H 0.0 **** 0.0
16420 M 39.835981 17.793916 43.561402 M 0.0 **** 0.0
16421 O 25.720755 28.030948 45.564383 O 0.0 **** 0.0
16422 H 26.419846 28.665287 45.405908 H 0.0 **** 0.0
16423 H 26.160829 27.180986 45.553064 H 0.0 **** 0.0
16424 M 25.866582 28.003345 45.542647 M 0.0 **** 0.0
16425 O 8.009705 27.654598 10.097623 O 0.0 **** 0.0
16426 H 8.570948 27.869539 10.84263 H 0.0 **** 0.0
16427 H 8.61489 27.550807 9.363315 H 0.0 **** 0.0
16428 M 8.159023 27.668826 10.098992 M 0.0 **** 0.0
16429 O 12.067979 18.503232 23.932971 O 0.0 **** 0.0
16430 H 11.12157 18.58124 23.812748 H 0.0 **** 0.0
16431 H 12.441909 18.840436 23.118908 H 0.0 **** 0.0
16432 M 11.994694 18.556385 23.81337 M 0.0 **** 0.0
16433 O 11.941038 33.09229 13.517012 O 0.0 **** 0.0
16434 H 11.342957 33.122167 12.770262 H 0.0 **** 0.0
16435 H 12.802874 32.942496 13.128388 H 0.0 **** 0.0
16436 M 11.974802 33.076939 13.37167 M 0.0 **** 0.0
16437 O 25.423039 34.287436 33.772897 O 0.0 **** 0.0
16438 H 25.791297 33.50643 33.359806 H 0.0 **** 0.0
16439 H 24.740754 33.952202 34.354563 H 0.0 **** 0.0
16440 M 25.382839 34.144543 33.794477 M 0.0 **** 0.0
16441 O 2.442067 1.779172 27.630263 O 0.0 **** 0.0
16442 H 2.769923 1.434325 26.79971 H 0.0 **** 0.0
16443 H 2.191781 2.681823 27.433267 H 0.0 **** 0.0
16444 M 2.451997 1.850578 27.498724 M 0.0 **** 0.0
16445 O 44.411874 32.280572 33.336059 O 0.0 **** 0.0
16446 H 44.666961 31.554169 33.904827 H 0.0 **** 0.0
16447 H 44.972942 33.006823 33.608072 H 0.0 **** 0.0
16448 M 44.516352 32.280553 33.44369 M 0.0 **** 0.0
16449 O 45.950686 26.364817 28.651382 O 0.0 **** 0.0
16450 H 45.3739 25.697753 29.023635 H 0.0 **** 0.0
16451 H 46.061716 27.005289 29.354017 H 0.0 **** 0.0
16452 M 45.891063 26.361413 28.788981 M 0.0 **** 0.0
16453 O 9.462447 17.079966 15.134574 O 0.0 **** 0.0
16454 H 9.964503 16.716986 14.404907 H 0.0 **** 0.0
16455 H 9.32651 17.997785 14.899288 H 0.0 **** 0.0
16456 M 9.509315 17.150993 15.011048 M 0.0 **** 0.0
16457 O 27.879356 10.583279 10.627454 O 0.0 **** 0.0
16458 H 28.270622 11.31878 10.156097 H 0.0 **** 0.0
16459 H 28.192401 10.680745 11.526749 H 0.0 **** 0.0
16460 M 27.969516 10.689909 10.682235 M 0.0 **** 0.0
16461 O 4.344461 2.497004 0.415934 O 0.0 **** 0.0
16462 H 4.468673 2.198692 1.316939 H 0.0 **** 0.0
16463 H 5.177424 2.308394 -0.016302 H 0.0 **** 0.0
16464 M 4.466992 2.434672 0.475942 M 0.0 **** 0.0
16465 O 33.667094 22.49402 27.316961 O 0.0 **** 0.0
16466 H 32.851328 22.723765 27.761902 H 0.0 **** 0.0
16467 H 33.635178 21.540933 27.234283 H 0.0 **** 0.0
16468 M 33.55858 22.401423 27.363335 M 0.0 **** 0.0
16469 O 42.482732 35.52387 25.122433 O 0.0 **** 0.0
16470 H 42.859041 35.024784 24.397497 H 0.0 **** 0.0
16471 H 41.863112 34.920712 25.532921 H 0.0 **** 0.0
16472 M 42.451585 35.382769 25.08218 M 0.0 **** 0.0
16473 O 28.834107 15.174621 27.624918 O 0.0 **** 0.0
16474 H 28.905936 14.220837 27.661886 H 0.0 **** 0.0
16475 H 29.731712 15.487433 27.737531 H 0.0 **** 0.0
16476 M 28.958207 15.092568 27.644066 M 0.0 **** 0.0
16477 O 16.995798 4.598165 11.983258 O 0.0 **** 0.0
16478 H 17.068306 5.40651 11.475764 H 0.0 **** 0.0
16479 H 17.648859 4.013731 11.59832 H 0.0 **** 0.0
16480 M 17.08868 4.626829 11.869016 M 0.0 **** 0.0
16481 O 21.476274 7.483642 42.709849 O 0.0 **** 0.0
16482 H 20.850418 6.768534 42.824534 H 0.0 **** 0.0
16483 H 21.113699 8.007648 41.995576 H 0.0 **** 0.0
16484 M 21.349742 7.459179 42.633095 M 0.0 **** 0.0
16485 O 10.432442 9.789899 20.508577 O 0.0 **** 0.0
16486 H 9.681446 9.329735 20.133766 H 0.0 **** 0.0
16487 H 11.187023 9.250887 20.271297 H 0.0 **** 0.0
16488 M 10.432901 9.661992 20.430222 M 0.0 **** 0.0
16489 O 5.908011 40.862556 23.600213 O 0.0 **** 0.0
16490 H 5.528493 39.998273 23.758989 H 0.0 **** 0.0
16491 H 6.816582 40.68472 23.357106 H 0.0 **** 0.0
16492 M 5.975737 40.729151 23.589418 M 0.0 **** 0.0
16493 O 34.70265 30.513388 21.859468 O 0.0 **** 0.0
16494 H 35.608372 30.823058 21.859809 H 0.0 **** 0.0
16495 H 34.7747 29.560777 21.919211 H 0.0 **** 0.0
16496 M 34.827817 30.431083 21.867159 M 0.0 **** 0.0
16497 O 44.809157 13.594865 34.570313 O 0.0 **** 0.0
16498 H 45.155513 14.187987 35.237001 H 0.0 **** 0.0
16499 H 44.95039 14.055055 33.742964 H 0.0 **** 0.0
16500 M 44.871574 13.729702 34.549746 M 0.0 **** 0.0
16501 O 31.651914 25.970734 38.173695 O 0.0 **** 0.0
16502 H 31.831757 26.908408 38.105485 H 0.0 **** 0.0
16503 H 32.444755 25.602013 38.563151 H 0.0 **** 0.0
16504 M 31.77643 26.043567 38.214818 M 0.0 **** 0.0
16505 O 22.400417 12.627962 3.417837 O 0.0 **** 0.0
16506 H 21.826891 11.977192 3.822554 H 0.0 **** 0.0
16507 H 23.285607 12.302362 3.581089 H 0.0 **** 0.0
16508 M 22.440314 12.502974 3.490544 M 0.0 **** 0.0
16509 O 35.055434 19.442072 25.444032 O 0.0 **** 0.0
16510 H 34.626169 18.588275 25.389352 H 0.0 **** 0.0
16511 H 34.604148 19.89229 26.158087 H 0.0 **** 0.0
16512 M 34.942712 19.390409 25.52844 M 0.0 **** 0.0
16513 O 32.160818 14.229533 7.101448 O 0.0 **** 0.0
16514 H 32.530993 13.51565 6.582247 H 0.0 **** 0.0
16515 H 32.166806 14.983395 6.511631 H 0.0 **** 0.0
16516 M 32.208972 14.234651 6.95948 M 0.0 **** 0.0
16517 O 2.627329 18.863798 30.309869 O 0.0 **** 0.0
16518 H 1.943156 19.117834 29.690513 H 0.0 **** 0.0
16519 H 2.948677 19.692298 30.665608 H 0.0 **** 0.0
16520 M 2.580883 19.002376 30.276123 M 0.0 **** 0.0
16521 O 46.715956 32.504199 44.077102 O 0.0 **** 0.0
16522 H 47.259401 33.031632 43.491687 H 0.0 **** 0.0
16523 H 47.340862 32.065716 44.654555 H 0.0 **** 0.0
16524 M 46.865519 32.515586 44.076083 M 0.0 **** 0.0
16525 O 1.068751 45.603439 25.596176 O 0.0 **** 0.0
16526 H 1.134417 46.429843 25.117664 H 0.0 **** 0.0
16527 H 0.481403 45.065009 25.065757 H 0.0 **** 0.0
16528 M 1.001969 45.640303 25.46702 M 0.0 **** 0.0
16529 O 19.031863 18.359514 36.627873 O 0.0 **** 0.0
16530 H 19.451012 17.545897 36.347568 H 0.0 **** 0.0
16531 H 19.759047 18.959899 36.792098 H 0.0 **** 0.0
16532 M 19.178608 18.332218 36.613013 M 0.0 **** 0.0
16533 O 23.084801 33.854503 37.159921 O 0.0 **** 0.0
16534 H 22.57926 33.384386 36.496861 H 0.0 **** 0.0
16535 H 23.494902 34.575632 36.682408 H 0.0 **** 0.0
16536 M 23.072583 33.886635 37.013913 M 0.0 **** 0.0
16537 O 0.636939 13.833241 35.013612 O 0.0 **** 0.0
16538 H 0.940394 14.585891 35.521215 H 0.0 **** 0.0
16539 H 0.000125 13.400983 35.58269 H 0.0 **** 0.0
16540 M 0.594265 13.874255 35.15144 M 0.0 **** 0.0
16541 O 7.353493 30.188344 42.00003 O 0.0 **** 0.0
16542 H 7.264771 29.235932 42.035647 H 0.0 **** 0.0
16543 H 6.838868 30.448914 41.236163 H 0.0 **** 0.0
16544 M 7.276257 30.09978 41.906805 M 0.0 **** 0.0
16545 O 1.288161 24.13361 47.087036 O 0.0 **** 0.0
16546 H 1.193089 23.288705 47.526724 H 0.0 **** 0.0
16547 H 0.469466 24.593821 47.271896 H 0.0 **** 0.0
16548 M 1.171188 24.084364 47.166986 M 0.0 **** 0.0
16549 O 33.837308 0.637683 5.656133 O 0.0 **** 0.0
16550 H 34.260612 1.446238 5.944718 H 0.0 **** 0.0
16551 H 34.06768 -0.006109 6.325975 H 0.0 **** 0.0
16552 M 33.920987 0.658775 5.778824 M 0.0 **** 0.0
16553 O 38.009343 5.924462 1.447828 O 0.0 **** 0.0
16554 H 38.409939 6.676839 1.883351 H 0.0 **** 0.0
16555 H 38.532347 5.175366 1.733397 H 0.0 **** 0.0
16556 M 38.127575 5.924882 1.540137 M 0.0 **** 0.0
16557 O 6.982821 39.118689 41.069252 O 0.0 **** 0.0
16558 H 6.951255 38.372727 41.668229 H 0.0 **** 0.0
16559 H 6.125461 39.121157 40.643627 H 0.0 **** 0.0
16560 M 6.869027 39.023512 41.091443 M 0.0 **** 0.0
16561 O 21.189574 45.883264 14.439482 O 0.0 **** 0.0
16562 H 22.040485 46.076258 14.045867 H 0.0 **** 0.0
16563 H 20.582369 45.861644 13.699845 H 0.0 **** 0.0
16564 M 21.220772 45.905202 14.294411 M 0.0 **** 0.0
16565 O 17.557922 20.362035 18.51926 O 0.0 **** 0.0
16566 H 17.046814 21.088248 18.162032 H 0.0 **** 0.0
16567 H 18.442616 20.714973 18.614024 H 0.0 **** 0.0
16568 M 17.605746 20.50018 18.485662 M 0.0 **** 0.0
16569 O 26.532898 16.68656 9.625094 O 0.0 **** 0.0
16570 H 26.403267 17.233184 8.850093 H 0.0 **** 0.0
16571 H 26.754339 17.305409 10.320952 H 0.0 **** 0.0
16572 M 26.544651 16.835755 9.614962 M 0.0 **** 0.0
16573 O 33.648237 44.956101 30.678723 O 0.0 **** 0.0
16574 H 33.610072 44.914488 31.634255 H 0.0 **** 0.0
16575 H 34.514247 45.316815 30.488614 H 0.0 **** 0.0
16576 M 33.754212 44.99695 30.776707 M 0.0 **** 0.0
16577 O 6.297312 34.488077 18.044347 O 0.0 **** 0.0
16578 H 5.640259 33.979344 18.519427 H 0.0 **** 0.0
16579 H 6.027579 34.431948 17.127656 H 0.0 **** 0.0
16580 M 6.178672 34.415767 17.987816 M 0.0 **** 0.0
16581 O 16.434601 4.056177 39.668546 O 0.0 **** 0.0
16582 H 15.606272 4.523519 39.776669 H 0.0 **** 0.0
16583 H 17.102576 4.740985 39.701344 H 0.0 **** 0.0
16584 M 16.414074 4.203667 39.686585 M 0.0 **** 0.0
16585 O 28.66603 12.088018 37.799785 O 0.0 **** 0.0
16586 H 28.593884 12.223054 38.74466 H 0.0 **** 0.0
16587 H 28.707774 11.137411 37.695708 H 0.0 **** 0.0
16588 M 28.662138 11.983615 37.907418 M 0.0 **** 0.0
16589 O 8.132404 18.948206 19.515501 O 0.0 **** 0.0
16590 H 9.057473 18.866952 19.283395 H 0.0 **** 0.0
16591 H 7.979496 19.891791 19.565465 H 0.0 **** 0.0
16592 M 8.23125 19.058596 19.492185 M 0.0 **** 0.0
16593 O 31.937028 14.21143 13.870012 O 0.0 **** 0.0
16594 H 32.846399 14.492362 13.768275 H 0.0 **** 0.0
16595 H 31.424911 15.013178 13.764347 H 0.0 **** 0.0
16596 M 31.987882 14.350026 13.843462 M 0.0 **** 0.0
16597 O 14.581272 43.040746 43.914899 O 0.0 **** 0.0
16598 H 15.533503 42.955031 43.961124 H 0.0 **** 0.0
16599 H 14.25624 42.496796 44.632325 H 0.0 **** 0.0
16600 M 14.661561 42.960141 44.012655 M 0.0 **** 0.0
16601 O 12.240475 30.768214 44.515598 O 0.0 **** 0.0
16602 H 11.687057 29.990578 44.58799 H 0.0 **** 0.0
16603 H 11.657816 31.497878 44.72614 H 0.0 **** 0.0
16604 M 12.095043 30.762073 44.551817 M 0.0 **** 0.0
16605 O 11.206187 10.750035 13.263733 O 0.0 **** 0.0
16606 H 11.562989 9.875447 13.418712 H 0.0 **** 0.0
16607 H 11.939267 11.247556 12.901385 H 0.0 **** 0.0
16608 M 11.345706 10.701766 13.237187 M 0.0 **** 0.0
16609 O 6.321646 21.620864 45.366591 O 0.0 **** 0.0
16610 H 5.365899 21.673473 45.369543 H 0.0 **** 0.0
16611 H 6.541513 21.201998 46.19872 H 0.0 **** 0.0
16612 M 6.227444 21.573978 45.473492 M 0.0 **** 0.0
16613 O 10.779576 41.198477 7.549015 O 0.0 **** 0.0
16614 H 10.823313 42.153529 7.502198 H 0.0 **** 0.0
16615 H 11.684167 40.923881 7.699151 H 0.0 **** 0.0
16616 M 10.900974 41.285584 7.562241 M 0.0 **** 0.0
16617 O 19.636189 18.373302 5.718753 O 0.0 **** 0.0
16618 H 19.151064 17.563678 5.559405 H 0.0 **** 0.0
16619 H 18.971257 19.061224 5.689479 H 0.0 **** 0.0
16620 M 19.488967 18.357722 5.694607 M 0.0 **** 0.0
16621 O 44.418107 19.641682 20.657522 O 0.0 **** 0.0
16622 H 43.853568 20.374502 20.903491 H 0.0 **** 0.0
16623 H 43.877318 18.864472 20.797951 H 0.0 **** 0.0
16624 M 44.276611 19.636 20.706986 M 0.0 **** 0.0
16625 O 5.757712 41.959534 41.578395 O 0.0 **** 0.0
16626 H 6.245947 41.140161 41.497873 H 0.0 **** 0.0
16627 H 6.429247 42.62557 41.725591 H 0.0 **** 0.0
16628 M 5.906177 41.939905 41.58693 M 0.0 **** 0.0
16629 O 11.070111 42.516403 37.235186 O 0.0 **** 0.0
16630 H 11.422188 42.055785 36.473542 H 0.0 **** 0.0
16631 H 11.711554 43.202927 37.418119 H 0.0 **** 0.0
16632 M 11.197294 42.545322 37.161104 M 0.0 **** 0.0
16633 O 39.009945 44.979938 29.424588 O 0.0 **** 0.0
16634 H 38.982995 45.928318 29.551391 H 0.0 **** 0.0
16635 H 38.910462 44.617202 30.304789 H 0.0 **** 0.0
16636 M 38.99376 45.054908 29.553497 M 0.0 **** 0.0
16637 O 21.181035 2.036865 42.602557 O 0.0 **** 0.0
16638 H 20.320332 2.134417 42.195246 H 0.0 **** 0.0
16639 H 21.356893 1.096533 42.569723 H 0.0 **** 0.0
16640 M 21.093367 1.928978 42.546213 M 0.0 **** 0.0
16641 O 37.135521 7.380022 40.310351 O 0.0 **** 0.0
16642 H 37.064471 6.884047 41.125943 H 0.0 **** 0.0
16643 H 37.862124 6.968982 39.842031 H 0.0 **** 0.0
16644 M 37.21944 7.263912 40.354806 M 0.0 **** 0.0
16645 O 39.196124 47.30147 22.068489 O 0.0 **** 0.0
16646 H 39.704798 46.528262 22.312677 H 0.0 **** 0.0
16647 H 39.769044 48.040297 22.273736 H 0.0 **** 0.0
16648 M 39.334581 47.297069 22.126022 M 0.0 **** 0.0
16649 O 9.031957 12.500544 41.390485 O 0.0 **** 0.0
16650 H 9.045991 13.446096 41.242283 H 0.0 **** 0.0
16651 H 8.336628 12.36894 42.035021 H 0.0 **** 0.0
16652 M 8.944743 12.60474 41.454022 M 0.0 **** 0.0
16653 O 35.038728 6.183255 11.091421 O 0.0 **** 0.0
16654 H 35.273542 5.418986 10.565128 H 0.0 **** 0.0
16655 H 34.08159 6.182402 11.102101 H 0.0 **** 0.0
16656 M 34.946262 6.08531 11.025416 M 0.0 **** 0.0
16657 O 13.482748 47.07692 36.752361 O 0.0 **** 0.0
16658 H 13.69465 46.51972 36.003459 H 0.0 **** 0.0
16659 H 12.543724 47.243155 36.66972 H 0.0 **** 0.0
16660 M 13.389667 47.026871 36.645913 M 0.0 **** 0.0
16661 O 21.390212 31.474524 31.288162 O 0.0 **** 0.0
16662 H 21.456375 32.424347 31.386594 H 0.0 **** 0.0
16663 H 22.265684 31.199951 31.015424 H 0.0 **** 0.0
16664 M 21.510753 31.560965 31.265849 M 0.0 **** 0.0
16665 O 9.313916 37.062922 38.924185 O 0.0 **** 0.0
16666 H 8.71318 37.804246 38.848129 H 0.0 **** 0.0
16667 H 8.743365 36.301206 39.026604 H 0.0 **** 0.0
16668 M 9.163976 37.060312 38.92756 M 0.0 **** 0.0
16669 O 34.679179 36.552573 25.39317 O 0.0 **** 0.0
16670 H 33.799441 36.37672 25.059454 H 0.0 **** 0.0
16671 H 34.849782 37.463049 25.152011 H 0.0 **** 0.0
16672 M 34.5884 36.646614 25.319579 M 0.0 **** 0.0
16673 O 16.153956 11.196132 14.506895 O 0.0 **** 0.0
16674 H 16.210084 10.24125 14.471136 H 0.0 **** 0.0
16675 H 17.063621 11.491595 14.468956 H 0.0 **** 0.0
16676 M 16.277589 11.111718 14.497461 M 0.0 **** 0.0
16677 O 5.182634 11.933113 43.289902 O 0.0 **** 0.0
16678 H 5.840296 12.579956 43.54545 H 0.0 **** 0.0
16679 H 4.902815 12.20749 42.416605 H 0.0 **** 0.0
16680 M 5.231003 12.051041 43.210822 M 0.0 **** 0.0
16681 O 37.381801 33.914246 4.870663 O 0.0 **** 0.0
16682 H 36.958758 34.259908 5.656654 H 0.0 **** 0.0
16683 H 38.300465 34.167267 4.961576 H 0.0 **** 0.0
16684 M 37.445247 33.990885 4.982917 M 0.0 **** 0.0
16685 O 42.667768 2.452997 27.843189 O 0.0 **** 0.0
16686 H 41.816814 2.014784 27.834474 H 0.0 **** 0.0
16687 H 42.597214 3.100265 28.544826 H 0.0 **** 0.0
16688 M 42.549803 2.479759 27.931891 M 0.0 **** 0.0
16689 O 20.748772 7.354104 46.150745 O 0.0 **** 0.0
16690 H 20.030187 7.801014 46.598111 H 0.0 **** 0.0
16691 H 20.361364 6.540635 45.827618 H 0.0 **** 0.0
16692 M 20.607191 7.30718 46.166649 M 0.0 **** 0.0
16693 O 47.996494 27.130526 47.994232 O 0.0 **** 0.0
16694 H 47.067453 26.900423 47.981453 H 0.0 **** 0.0
16695 H 48.006466 28.087453 48.014704 H 0.0 **** 0.0
16696 M 47.878842 27.223568 47.995216 M 0.0 **** 0.0
16697 O 47.999938 18.285949 7.402565 O 0.0 **** 0.0
16698 H 47.377644 17.558896 7.383243 H 0.0 **** 0.0
16699 H 47.523413 19.020071 7.014987 H 0.0 **** 0.0
16700 M 47.859276 18.286854 7.350477 M 0.0 **** 0.0
16701 O 13.552839 11.536131 0.273082 O 0.0 **** 0.0
16702 H 13.94246 12.303452 0.692179 H 0.0 **** 0.0
16703 H 13.583033 10.85466 0.944583 H 0.0 **** 0.0
16704 M 13.606581 11.547121 0.412692 M 0.0 **** 0.0
16705 O 4.129751 20.893083 17.371165 O 0.0 **** 0.0
16706 H 3.94135 21.543829 16.694953 H 0.0 **** 0.0
16707 H 3.33485 20.863192 17.903582 H 0.0 **** 0.0
16708 M 4.003876 20.97256 17.352757 M 0.0 **** 0.0
16709 O 47.880918 10.69028 11.737485 O 0.0 **** 0.0
16710 H 47.969459 11.642416 11.780234 H 0.0 **** 0.0
16711 H 46.984192 10.545968 11.43535 H 0.0 **** 0.0
16712 M 47.77746 10.793692 11.70428 M 0.0 **** 0.0
@<TRIPOS>BOND
1 1 2 1
2 1 3 1
3 1 4 1
4 5 6 1
5 5 7 1
6 5 8 1
7 10 9 1
8 11 9 1
9 12 9 1
10 13 14 1
11 13 15 1
12 13 16 1
13 17 18 1
14 17 19 1
15 17 20 1
16 21 22 1
17 21 23 1
18 21 24 1
19 25 26 1
20 25 27 1
21 25 28 1
22 29 30 1
23 29 31 1
24 29 32 1
25 33 34 1
26 33 35 1
27 33 36 1
28 37 38 1
29 37 39 1
30 37 40 1
31 41 42 1
32 41 43 1
33 41 44 1
34 45 46 1
35 45 47 1
36 45 48 1
37 49 50 1
38 49 51 1
39 49 52 1
40 53 54 1
41 53 55 1
42 53 56 1
43 57 58 1
44 57 59 1
45 57 60 1
46 61 62 1
47 61 63 1
48 61 64 1
49 65 66 1
50 65 67 1
51 65 68 1
52 69 70 1
53 69 71 1
54 69 72 1
55 73 74 1
56 73 75 1
57 73 76 1
58 77 78 1
59 77 79 1
60 77 80 1
61 81 82 1
62 81 83 1
63 81 84 1
64 85 86 1
65 85 87 1
66 85 88 1
67 89 90 1
68 89 91 1
69 89 92 1
70 93 94 1
71 93 95 1
72 93 96 1
73 97 98 1
74 97 99 1
75 100 97 1
76 101 102 1
77 101 103 1
78 101 104 1
79 105 106 1
80 105 107 1
81 105 108 1
82 109 110 1
83 109 111 1
84 109 112 1
85 113 114 1
86 113 115 1
87 113 116 1
88 117 119 1
89 117 118 1
90 117 120 1
91 121 122 1
92 121 123 1
93 121 124 1
94 125 126 1
95 125 127 1
96 125 128 1
97 129 130 1
98 129 131 1
99 129 132 1
100 133 134 1
101 133 135 1
102 133 136 1
103 137 138 1
104 137 139 1
105 137 140 1
106 141 142 1
107 141 143 1
108 141 144 1
109 145 146 1
110 145 147 1
111 145 148 1
112 149 150 1
113 149 151 1
114 149 152 1
115 153 154 1
116 153 155 1
117 153 156 1
118 157 159 1
119 157 160 1
120 157 158 1
121 161 162 1
122 161 163 1
123 161 164 1
124 165 166 1
125 165 167 1
126 165 168 1
127 169 170 1
128 169 171 1
129 169 172 1
130 173 174 1
131 173 175 1
132 173 176 1
133 177 178 1
134 177 179 1
135 177 180 1
136 181 182 1
137 181 183 1
138 181 184 1
139 185 186 1
140 185 187 1
141 185 188 1
142 189 190 1
143 189 191 1
144 189 192 1
145 193 194 1
146 193 195 1
147 193 196 1
148 197 198 1
149 197 199 1
150 197 200 1
151 201 202 1
152 201 203 1
153 201 204 1
154 205 206 1
155 205 207 1
156 205 208 1
157 209 210 1
158 209 211 1
159 209 212 1
160 213 214 1
161 213 215 1
162 213 216 1
163 217 218 1
164 217 219 1
165 217 220 1
166 221 222 1
167 221 223 1
168 221 224 1
169 225 226 1
170 225 227 1
171 225 228 1
172 229 230 1
173 229 231 1
174 229 232 1
175 233 234 1
176 233 235 1
177 233 236 1
178 237 238 1
179 237 239 1
180 237 240 1
181 241 242 1
182 241 243 1
183 241 244 1
184 245 246 1
185 245 247 1
186 245 248 1
187 249 250 1
188 249 251 1
189 249 252 1
190 253 254 1
191 253 255 1
192 253 256 1
193 257 258 1
194 257 259 1
195 257 260 1
196 261 262 1
197 261 263 1
198 261 264 1
199 265 266 1
200 265 267 1
201 265 268 1
202 269 270 1
203 269 271 1
204 269 272 1
205 273 274 1
206 273 275 1
207 273 276 1
208 277 278 1
209 277 279 1
210 277 280 1
211 281 282 1
212 281 283 1
213 281 284 1
214 285 286 1
215 285 287 1
216 285 288 1
217 289 290 1
218 289 291 1
219 289 292 1
220 293 294 1
221 293 295 1
222 293 296 1
223 297 298 1
224 297 299 1
225 297 300 1
226 301 302 1
227 301 303 1
228 301 304 1
229 305 306 1
230 305 307 1
231 305 308 1
232 309 310 1
233 309 311 1
234 309 312 1
235 313 314 1
236 313 315 1
237 313 316 1
238 317 318 1
239 317 319 1
240 317 320 1
241 321 322 1
242 321 323 1
243 321 324 1
244 325 326 1
245 325 327 1
246 325 328 1
247 329 330 1
248 329 331 1
249 329 332 1
250 333 334 1
251 333 335 1
252 333 336 1
253 337 338 1
254 337 339 1
255 337 340 1
256 341 342 1
257 341 343 1
258 341 344 1
259 345 348 1
260 345 346 1
261 345 347 1
262 349 350 1
263 349 351 1
264 349 352 1
265 353 354 1
266 353 355 1
267 353 356 1
268 357 358 1
269 357 359 1
270 357 360 1
271 361 362 1
272 361 363 1
273 361 364 1
274 365 366 1
275 365 367 1
276 365 368 1
277 369 370 1
278 369 371 1
279 369 372 1
280 373 374 1
281 373 375 1
282 373 376 1
283 377 378 1
284 377 379 1
285 377 380 1
286 381 382 1
287 381 383 1
288 381 384 1
289 385 386 1
290 385 387 1
291 385 388 1
292 389 390 1
293 389 391 1
294 389 392 1
295 393 394 1
296 393 395 1
297 393 396 1
298 397 398 1
299 397 399 1
300 397 400 1
301 401 402 1
302 401 403 1
303 401 404 1
304 405 406 1
305 405 407 1
306 405 408 1
307 409 411 1
308 409 412 1
309 409 410 1
310 413 414 1
311 413 415 1
312 413 416 1
313 417 418 1
314 417 419 1
315 417 420 1
316 421 422 1
317 421 423 1
318 421 424 1
319 425 426 1
320 425 427 1
321 425 428 1
322 429 430 1
323 429 431 1
324 429 432 1
325 433 434 1
326 433 435 1
327 433 436 1
328 437 438 1
329 437 439 1
330 437 440 1
331 441 442 1
332 441 443 1
333 441 444 1
334 445 446 1
335 445 447 1
336 445 448 1
337 449 450 1
338 449 451 1
339 449 452 1
340 453 454 1
341 453 455 1
342 453 456 1
343 457 458 1
344 457 459 1
345 457 460 1
346 461 462 1
347 461 463 1
348 461 464 1
349 465 466 1
350 465 467 1
351 465 468 1
352 469 470 1
353 469 471 1
354 469 472 1
355 473 474 1
356 473 475 1
357 473 476 1
358 477 478 1
359 477 479 1
360 477 480 1
361 481 482 1
362 481 483 1
363 481 484 1
364 485 486 1
365 485 487 1
366 485 488 1
367 489 490 1
368 489 491 1
369 489 492 1
370 493 494 1
371 493 495 1
372 493 496 1
373 497 498 1
374 497 499 1
375 497 500 1
376 501 502 1
377 501 503 1
378 501 504 1
379 505 506 1
380 505 507 1
381 505 508 1
382 509 510 1
383 509 511 1
384 509 512 1
385 513 514 1
386 513 515 1
387 513 516 1
388 517 518 1
389 517 519 1
390 517 520 1
391 521 522 1
392 521 523 1
393 521 524 1
394 525 526 1
395 525 527 1
396 525 528 1
397 529 530 1
398 529 531 1
399 529 532 1
400 533 534 1
401 533 535 1
402 533 536 1
403 537 538 1
404 537 539 1
405 537 540 1
406 541 542 1
407 541 543 1
408 541 544 1
409 545 546 1
410 545 547 1
411 545 548 1
412 549 550 1
413 549 551 1
414 549 552 1
415 553 554 1
416 553 555 1
417 553 556 1
418 557 558 1
419 557 559 1
420 557 560 1
421 561 562 1
422 561 563 1
423 561 564 1
424 565 566 1
425 565 567 1
426 565 568 1
427 569 570 1
428 569 571 1
429 569 572 1
430 573 574 1
431 573 575 1
432 573 576 1
433 577 578 1
434 577 579 1
435 577 580 1
436 581 582 1
437 581 583 1
438 581 584 1
439 585 586 1
440 585 587 1
441 585 588 1
442 589 590 1
443 589 591 1
444 589 592 1
445 593 594 1
446 593 595 1
447 593 596 1
448 597 598 1
449 597 599 1
450 597 600 1
451 601 602 1
452 601 603 1
453 601 604 1
454 605 606 1
455 605 607 1
456 605 608 1
457 609 610 1
458 609 611 1
459 609 612 1
460 613 614 1
461 613 615 1
462 613 616 1
463 617 618 1
464 617 619 1
465 617 620 1
466 621 622 1
467 621 623 1
468 621 624 1
469 625 626 1
470 625 627 1
471 625 628 1
472 629 630 1
473 629 631 1
474 629 632 1
475 633 634 1
476 633 635 1
477 633 636 1
478 637 638 1
479 637 639 1
480 637 640 1
481 641 642 1
482 641 643 1
483 641 644 1
484 645 646 1
485 645 647 1
486 645 648 1
487 649 650 1
488 649 651 1
489 649 652 1
490 653 654 1
491 653 655 1
492 653 656 1
493 657 658 1
494 657 659 1
495 657 660 1
496 661 663 1
497 661 664 1
498 661 662 1
499 665 666 1
500 665 667 1
501 665 668 1
502 669 670 1
503 669 671 1
504 669 672 1
505 673 674 1
506 673 675 1
507 673 676 1
508 677 678 1
509 677 679 1
510 677 680 1
511 681 682 1
512 681 683 1
513 681 684 1
514 685 686 1
515 685 687 1
516 685 688 1
517 689 690 1
518 689 691 1
519 689 692 1
520 693 694 1
521 693 695 1
522 693 696 1
523 697 698 1
524 697 699 1
525 697 700 1
526 701 702 1
527 701 703 1
528 701 704 1
529 705 706 1
530 705 707 1
531 705 708 1
532 709 710 1
533 709 711 1
534 709 712 1
535 713 714 1
536 713 715 1
537 713 716 1
538 717 718 1
539 717 719 1
540 717 720 1
541 721 722 1
542 721 723 1
543 721 724 1
544 725 726 1
545 725 727 1
546 725 728 1
547 729 730 1
548 729 731 1
549 729 732 1
550 733 734 1
551 733 735 1
552 733 736 1
553 737 738 1
554 737 739 1
555 737 740 1
556 741 742 1
557 741 743 1
558 741 744 1
559 745 746 1
560 745 747 1
561 745 748 1
562 749 750 1
563 749 751 1
564 749 752 1
565 753 754 1
566 753 755 1
567 753 756 1
568 757 758 1
569 757 759 1
570 757 760 1
571 761 762 1
572 761 763 1
573 761 764 1
574 765 766 1
575 765 767 1
576 765 768 1
577 769 770 1
578 769 771 1
579 769 772 1
580 773 774 1
581 773 775 1
582 773 776 1
583 777 778 1
584 777 779 1
585 777 780 1
586 781 782 1
587 781 783 1
588 781 784 1
589 785 786 1
590 785 787 1
591 785 788 1
592 789 790 1
593 789 791 1
594 789 792 1
595 793 794 1
596 793 795 1
597 793 796 1
598 797 798 1
599 797 799 1
600 797 800 1
601 801 802 1
602 801 803 1
603 801 804 1
604 805 806 1
605 805 807 1
606 805 808 1
607 809 810 1
608 809 811 1
609 809 812 1
610 813 814 1
611 813 815 1
612 813 816 1
613 817 818 1
614 817 819 1
615 817 820 1
616 821 822 1
617 821 823 1
618 821 824 1
619 825 826 1
620 825 827 1
621 825 828 1
622 829 830 1
623 829 831 1
624 829 832 1
625 833 834 1
626 833 835 1
627 833 836 1
628 837 838 1
629 837 839 1
630 837 840 1
631 841 842 1
632 841 843 1
633 841 844 1
634 845 846 1
635 845 847 1
636 845 848 1
637 849 852 1
638 849 850 1
639 849 851 1
640 853 854 1
641 853 855 1
642 853 856 1
643 857 858 1
644 857 859 1
645 857 860 1
646 861 862 1
647 861 863 1
648 861 864 1
649 865 866 1
650 865 867 1
651 865 868 1
652 869 870 1
653 869 871 1
654 869 872 1
655 873 874 1
656 873 875 1
657 873 876 1
658 877 878 1
659 877 879 1
660 877 880 1
661 881 882 1
662 881 883 1
663 881 884 1
664 885 886 1
665 885 887 1
666 885 888 1
667 889 890 1
668 889 891 1
669 889 892 1
670 893 894 1
671 893 895 1
672 893 896 1
673 897 898 1
674 897 899 1
675 897 900 1
676 901 902 1
677 901 903 1
678 901 904 1
679 905 906 1
680 905 907 1
681 905 908 1
682 909 910 1
683 909 911 1
684 909 912 1
685 913 915 1
686 913 916 1
687 913 914 1
688 917 918 1
689 917 919 1
690 917 920 1
691 921 922 1
692 921 923 1
693 921 924 1
694 925 926 1
695 925 927 1
696 925 928 1
697 929 930 1
698 929 931 1
699 929 932 1
700 933 934 1
701 933 935 1
702 933 936 1
703 937 938 1
704 937 939 1
705 937 940 1
706 941 942 1
707 941 943 1
708 941 944 1
709 945 946 1
710 945 947 1
711 945 948 1
712 949 950 1
713 949 951 1
714 949 952 1
715 953 954 1
716 953 955 1
717 953 956 1
718 957 958 1
719 957 959 1
720 957 960 1
721 961 962 1
722 961 963 1
723 961 964 1
724 965 966 1
725 965 967 1
726 965 968 1
727 969 970 1
728 969 971 1
729 969 972 1
730 973 974 1
731 973 975 1
732 973 976 1
733 977 978 1
734 977 979 1
735 977 980 1
736 981 982 1
737 981 983 1
738 981 984 1
739 985 986 1
740 985 987 1
741 985 988 1
742 989 990 1
743 989 991 1
744 989 992 1
745 993 994 1
746 993 995 1
747 993 996 1
748 997 998 1
749 997 999 1
750 1000 997 1
751 1001 1002 1
752 1001 1003 1
753 1001 1004 1
754 1005 1006 1
755 1005 1007 1
756 1005 1008 1
757 1009 1010 1
758 1009 1011 1
759 1009 1012 1
760 1013 1014 1
761 1013 1015 1
762 1013 1016 1
763 1017 1018 1
764 1017 1019 1
765 1017 1020 1
766 1021 1022 1
767 1021 1023 1
768 1021 1024 1
769 1025 1026 1
770 1025 1027 1
771 1025 1028 1
772 1029 1030 1
773 1029 1031 1
774 1029 1032 1
775 1033 1034 1
776 1033 1035 1
777 1033 1036 1
778 1037 1038 1
779 1037 1039 1
780 1037 1040 1
781 1041 1042 1
782 1041 1043 1
783 1041 1044 1
784 1045 1046 1
785 1045 1047 1
786 1045 1048 1
787 1049 1050 1
788 1049 1051 1
789 1049 1052 1
790 1053 1054 1
791 1053 1055 1
792 1053 1056 1
793 1057 1058 1
794 1057 1059 1
795 1057 1060 1
796 1061 1062 1
797 1061 1063 1
798 1061 1064 1
799 1065 1066 1
800 1065 1067 1
801 1065 1068 1
802 1069 1070 1
803 1069 1071 1
804 1069 1072 1
805 1073 1074 1
806 1073 1075 1
807 1073 1076 1
808 1077 1078 1
809 1077 1079 1
810 1077 1080 1
811 1081 1082 1
812 1081 1083 1
813 1081 1084 1
814 1085 1086 1
815 1085 1087 1
816 1085 1088 1
817 1089 1090 1
818 1089 1091 1
819 1089 1092 1
820 1093 1094 1
821 1093 1095 1
822 1093 1096 1
823 1097 1098 1
824 1097 1099 1
825 1097 1100 1
826 1101 1102 1
827 1101 1103 1
828 1101 1104 1
829 1105 1106 1
830 1105 1107 1
831 1105 1108 1
832 1109 1110 1
833 1109 1111 1
834 1109 1112 1
835 1113 1114 1
836 1113 1115 1
837 1113 1116 1
838 1117 1118 1
839 1117 1119 1
840 1117 1120 1
841 1121 1122 1
842 1121 1123 1
843 1121 1124 1
844 1125 1126 1
845 1125 1127 1
846 1125 1128 1
847 1129 1130 1
848 1129 1131 1
849 1129 1132 1
850 1133 1134 1
851 1133 1135 1
852 1133 1136 1
853 1137 1138 1
854 1137 1139 1
855 1137 1140 1
856 1141 1142 1
857 1141 1143 1
858 1141 1144 1
859 1145 1146 1
860 1145 1147 1
861 1145 1148 1
862 1149 1150 1
863 1149 1151 1
864 1149 1152 1
865 1153 1154 1
866 1153 1155 1
867 1153 1156 1
868 1157 1158 1
869 1157 1159 1
870 1157 1160 1
871 1161 1162 1
872 1161 1163 1
873 1161 1164 1
874 1165 1166 1
875 1165 1167 1
876 1165 1168 1
877 1169 1170 1
878 1169 1171 1
879 1169 1172 1
880 1173 1174 1
881 1173 1175 1
882 1173 1176 1
883 1177 1178 1
884 1177 1179 1
885 1177 1180 1
886 1181 1182 1
887 1181 1183 1
888 1181 1184 1
889 1185 1186 1
890 1185 1187 1
891 1185 1188 1
892 1189 1190 1
893 1189 1191 1
894 1189 1192 1
895 1193 1194 1
896 1193 1195 1
897 1193 1196 1
898 1197 1198 1
899 1197 1199 1
900 1197 1200 1
901 1201 1202 1
902 1201 1203 1
903 1201 1204 1
904 1205 1206 1
905 1205 1207 1
906 1205 1208 1
907 1209 1210 1
908 1209 1211 1
909 1209 1212 1
910 1213 1214 1
911 1213 1215 1
912 1213 1216 1
913 1217 1218 1
914 1217 1219 1
915 1217 1220 1
916 1221 1222 1
917 1221 1223 1
918 1221 1224 1
919 1225 1226 1
920 1225 1227 1
921 1225 1228 1
922 1229 1230 1
923 1229 1231 1
924 1229 1232 1
925 1233 1234 1
926 1233 1235 1
927 1233 1236 1
928 1237 1238 1
929 1237 1239 1
930 1237 1240 1
931 1241 1242 1
932 1241 1243 1
933 1241 1244 1
934 1245 1246 1
935 1245 1247 1
936 1245 1248 1
937 1249 1250 1
938 1249 1251 1
939 1249 1252 1
940 1253 1254 1
941 1253 1255 1
942 1253 1256 1
943 1257 1258 1
944 1257 1259 1
945 1257 1260 1
946 1261 1262 1
947 1261 1263 1
948 1261 1264 1
949 1265 1266 1
950 1265 1267 1
951 1265 1268 1
952 1269 1270 1
953 1269 1271 1
954 1269 1272 1
955 1273 1274 1
956 1273 1275 1
957 1273 1276 1
958 1277 1278 1
959 1277 1279 1
960 1277 1280 1
961 1281 1282 1
962 1281 1283 1
963 1281 1284 1
964 1285 1286 1
965 1285 1287 1
966 1285 1288 1
967 1289 1290 1
968 1289 1291 1
969 1289 1292 1
970 1293 1294 1
971 1293 1295 1
972 1293 1296 1
973 1297 1298 1
974 1297 1299 1
975 1297 1300 1
976 1301 1302 1
977 1301 1303 1
978 1301 1304 1
979 1305 1306 1
980 1305 1307 1
981 1305 1308 1
982 1309 1310 1
983 1309 1311 1
984 1309 1312 1
985 1313 1314 1
986 1313 1315 1
987 1313 1316 1
988 1317 1318 1
989 1317 1319 1
990 1317 1320 1
991 1321 1322 1
992 1321 1323 1
993 1321 1324 1
994 1325 1326 1
995 1325 1327 1
996 1325 1328 1
997 1329 1330 1
998 1329 1331 1
999 1329 1332 1
1000 1333 1334 1
1001 1333 1335 1
1002 1333 1336 1
1003 1337 1338 1
1004 1337 1339 1
1005 1337 1340 1
1006 1341 1342 1
1007 1341 1343 1
1008 1341 1344 1
1009 1345 1346 1
1010 1345 1347 1
1011 1345 1348 1
1012 1349 1350 1
1013 1349 1351 1
1014 1349 1352 1
1015 1353 1356 1
1016 1353 1354 1
1017 1353 1355 1
1018 1357 1358 1
1019 1357 1359 1
1020 1357 1360 1
1021 1361 1362 1
1022 1361 1363 1
1023 1361 1364 1
1024 1365 1366 1
1025 1365 1367 1
1026 1365 1368 1
1027 1369 1370 1
1028 1369 1371 1
1029 1369 1372 1
1030 1373 1374 1
1031 1373 1375 1
1032 1373 1376 1
1033 1377 1378 1
1034 1377 1379 1
1035 1377 1380 1
1036 1381 1382 1
1037 1381 1383 1
1038 1381 1384 1
1039 1385 1386 1
1040 1385 1387 1
1041 1385 1388 1
1042 1389 1390 1
1043 1389 1391 1
1044 1389 1392 1
1045 1393 1394 1
1046 1393 1395 1
1047 1393 1396 1
1048 1397 1398 1
1049 1397 1399 1
1050 1397 1400 1
1051 1401 1402 1
1052 1401 1403 1
1053 1401 1404 1
1054 1405 1406 1
1055 1405 1407 1
1056 1405 1408 1
1057 1409 1410 1
1058 1409 1411 1
1059 1409 1412 1
1060 1413 1414 1
1061 1413 1415 1
1062 1413 1416 1
1063 1417 1419 1
1064 1417 1420 1
1065 1417 1418 1
1066 1421 1422 1
1067 1421 1423 1
1068 1421 1424 1
1069 1425 1426 1
1070 1425 1427 1
1071 1425 1428 1
1072 1429 1430 1
1073 1429 1431 1
1074 1429 1432 1
1075 1433 1434 1
1076 1433 1435 1
1077 1433 1436 1
1078 1437 1438 1
1079 1437 1439 1
1080 1437 1440 1
1081 1441 1442 1
1082 1441 1443 1
1083 1441 1444 1
1084 1445 1446 1
1085 1445 1447 1
1086 1445 1448 1
1087 1449 1450 1
1088 1449 1451 1
1089 1449 1452 1
1090 1453 1454 1
1091 1453 1455 1
1092 1453 1456 1
1093 1457 1458 1
1094 1457 1459 1
1095 1457 1460 1
1096 1461 1462 1
1097 1461 1463 1
1098 1461 1464 1
1099 1465 1466 1
1100 1465 1467 1
1101 1465 1468 1
1102 1469 1470 1
1103 1469 1471 1
1104 1469 1472 1
1105 1473 1474 1
1106 1473 1475 1
1107 1473 1476 1
1108 1477 1478 1
1109 1477 1479 1
1110 1477 1480 1
1111 1481 1482 1
1112 1481 1483 1
1113 1481 1484 1
1114 1485 1486 1
1115 1485 1487 1
1116 1485 1488 1
1117 1489 1490 1
1118 1489 1491 1
1119 1489 1492 1
1120 1493 1494 1
1121 1493 1495 1
1122 1493 1496 1
1123 1497 1498 1
1124 1497 1499 1
1125 1497 1500 1
1126 1501 1502 1
1127 1501 1503 1
1128 1501 1504 1
1129 1505 1506 1
1130 1505 1507 1
1131 1505 1508 1
1132 1509 1510 1
1133 1509 1511 1
1134 1509 1512 1
1135 1513 1514 1
1136 1513 1515 1
1137 1513 1516 1
1138 1517 1518 1
1139 1517 1519 1
1140 1517 1520 1
1141 1521 1522 1
1142 1521 1523 1
1143 1521 1524 1
1144 1525 1526 1
1145 1525 1527 1
1146 1525 1528 1
1147 1529 1530 1
1148 1529 1531 1
1149 1529 1532 1
1150 1533 1534 1
1151 1533 1535 1
1152 1533 1536 1
1153 1537 1538 1
1154 1537 1539 1
1155 1537 1540 1
1156 1541 1542 1
1157 1541 1543 1
1158 1541 1544 1
1159 1545 1546 1
1160 1545 1547 1
1161 1545 1548 1
1162 1549 1550 1
1163 1549 1551 1
1164 1549 1552 1
1165 1553 1554 1
1166 1553 1555 1
1167 1553 1556 1
1168 1557 1558 1
1169 1557 1559 1
1170 1557 1560 1
1171 1561 1562 1
1172 1561 1563 1
1173 1561 1564 1
1174 1565 1566 1
1175 1565 1567 1
1176 1565 1568 1
1177 1569 1570 1
1178 1569 1571 1
1179 1569 1572 1
1180 1573 1574 1
1181 1573 1575 1
1182 1573 1576 1
1183 1577 1578 1
1184 1577 1579 1
1185 1577 1580 1
1186 1581 1582 1
1187 1581 1583 1
1188 1581 1584 1
1189 1585 1586 1
1190 1585 1587 1
1191 1585 1588 1
1192 1589 1590 1
1193 1589 1591 1
1194 1589 1592 1
1195 1593 1594 1
1196 1593 1595 1
1197 1593 1596 1
1198 1597 1598 1
1199 1597 1599 1
1200 1597 1600 1
1201 1601 1602 1
1202 1601 1603 1
1203 1601 1604 1
1204 1605 1606 1
1205 1605 1607 1
1206 1605 1608 1
1207 1609 1611 1
1208 1609 1612 1
1209 1609 1610 1
1210 1613 1614 1
1211 1613 1615 1
1212 1613 1616 1
1213 1617 1618 1
1214 1617 1619 1
1215 1617 1620 1
1216 1621 1622 1
1217 1621 1623 1
1218 1621 1624 1
1219 1625 1626 1
1220 1625 1627 1
1221 1625 1628 1
1222 1629 1630 1
1223 1629 1631 1
1224 1629 1632 1
1225 1633 1634 1
1226 1633 1635 1
1227 1633 1636 1
1228 1637 1638 1
1229 1637 1639 1
1230 1637 1640 1
1231 1641 1642 1
1232 1641 1643 1
1233 1641 1644 1
1234 1645 1646 1
1235 1645 1647 1
1236 1645 1648 1
1237 1649 1650 1
1238 1649 1651 1
1239 1649 1652 1
1240 1653 1654 1
1241 1653 1655 1
1242 1653 1656 1
1243 1657 1658 1
1244 1657 1659 1
1245 1657 1660 1
1246 1661 1662 1
1247 1661 1663 1
1248 1661 1664 1
1249 1665 1666 1
1250 1665 1667 1
1251 1665 1668 1
1252 1669 1671 1
1253 1669 1672 1
1254 1669 1670 1
1255 1673 1674 1
1256 1673 1675 1
1257 1673 1676 1
1258 1677 1678 1
1259 1677 1679 1
1260 1677 1680 1
1261 1681 1682 1
1262 1681 1683 1
1263 1681 1684 1
1264 1685 1686 1
1265 1685 1687 1
1266 1685 1688 1
1267 1689 1690 1
1268 1689 1691 1
1269 1689 1692 1
1270 1693 1694 1
1271 1693 1695 1
1272 1693 1696 1
1273 1697 1698 1
1274 1697 1699 1
1275 1697 1700 1
1276 1701 1702 1
1277 1701 1703 1
1278 1701 1704 1
1279 1705 1706 1
1280 1705 1707 1
1281 1705 1708 1
1282 1709 1710 1
1283 1709 1711 1
1284 1709 1712 1
1285 1713 1714 1
1286 1713 1715 1
1287 1713 1716 1
1288 1717 1718 1
1289 1717 1719 1
1290 1717 1720 1
1291 1721 1722 1
1292 1721 1723 1
1293 1721 1724 1
1294 1725 1726 1
1295 1725 1727 1
1296 1725 1728 1
1297 1729 1730 1
1298 1729 1731 1
1299 1729 1732 1
1300 1733 1734 1
1301 1733 1735 1
1302 1733 1736 1
1303 1737 1738 1
1304 1737 1739 1
1305 1737 1740 1
1306 1741 1742 1
1307 1741 1743 1
1308 1741 1744 1
1309 1745 1746 1
1310 1745 1747 1
1311 1745 1748 1
1312 1749 1750 1
1313 1749 1751 1
1314 1749 1752 1
1315 1753 1754 1
1316 1753 1755 1
1317 1753 1756 1
1318 1757 1758 1
1319 1757 1759 1
1320 1757 1760 1
1321 1761 1762 1
1322 1761 1763 1
1323 1761 1764 1
1324 1765 1766 1
1325 1765 1767 1
1326 1765 1768 1
1327 1769 1770 1
1328 1769 1771 1
1329 1769 1772 1
1330 1773 1774 1
1331 1773 1775 1
1332 1773 1776 1
1333 1777 1778 1
1334 1777 1779 1
1335 1777 1780 1
1336 1781 1782 1
1337 1781 1783 1
1338 1781 1784 1
1339 1785 1786 1
1340 1785 1787 1
1341 1785 1788 1
1342 1789 1790 1
1343 1789 1791 1
1344 1789 1792 1
1345 1793 1794 1
1346 1793 1795 1
1347 1793 1796 1
1348 1797 1798 1
1349 1797 1799 1
1350 1797 1800 1
1351 1801 1802 1
1352 1801 1803 1
1353 1801 1804 1
1354 1805 1806 1
1355 1805 1807 1
1356 1805 1808 1
1357 1809 1810 1
1358 1809 1811 1
1359 1809 1812 1
1360 1813 1814 1
1361 1813 1815 1
1362 1813 1816 1
1363 1817 1818 1
1364 1817 1819 1
1365 1817 1820 1
1366 1821 1822 1
1367 1821 1823 1
1368 1821 1824 1
1369 1825 1826 1
1370 1825 1827 1
1371 1825 1828 1
1372 1829 1830 1
1373 1829 1831 1
1374 1829 1832 1
1375 1833 1834 1
1376 1833 1835 1
1377 1833 1836 1
1378 1837 1838 1
1379 1837 1839 1
1380 1837 1840 1
1381 1841 1842 1
1382 1841 1843 1
1383 1841 1844 1
1384 1845 1846 1
1385 1845 1847 1
1386 1845 1848 1
1387 1849 1850 1
1388 1849 1851 1
1389 1849 1852 1
1390 1853 1854 1
1391 1853 1855 1
1392 1853 1856 1
1393 1857 1858 1
1394 1857 1859 1
1395 1857 1860 1
1396 1861 1862 1
1397 1861 1863 1
1398 1861 1864 1
1399 1865 1866 1
1400 1865 1867 1
1401 1865 1868 1
1402 1869 1870 1
1403 1869 1871 1
1404 1869 1872 1
1405 1873 1874 1
1406 1873 1875 1
1407 1873 1876 1
1408 1877 1878 1
1409 1877 1879 1
1410 1877 1880 1
1411 1881 1882 1
1412 1881 1883 1
1413 1881 1884 1
1414 1885 1886 1
1415 1885 1887 1
1416 1885 1888 1
1417 1889 1890 1
1418 1889 1891 1
1419 1889 1892 1
1420 1893 1894 1
1421 1893 1895 1
1422 1893 1896 1
1423 1897 1898 1
1424 1897 1899 1
1425 1897 1900 1
1426 1901 1902 1
1427 1901 1903 1
1428 1901 1904 1
1429 1905 1906 1
1430 1905 1907 1
1431 1905 1908 1
1432 1909 1910 1
1433 1909 1911 1
1434 1909 1912 1
1435 1913 1914 1
1436 1913 1915 1
1437 1913 1916 1
1438 1917 1918 1
1439 1917 1919 1
1440 1917 1920 1
1441 1921 1922 1
1442 1921 1923 1
1443 1921 1924 1
1444 1925 1926 1
1445 1925 1927 1
1446 1925 1928 1
1447 1929 1930 1
1448 1929 1931 1
1449 1929 1932 1
1450 1933 1934 1
1451 1933 1935 1
1452 1933 1936 1
1453 1937 1938 1
1454 1937 1939 1
1455 1937 1940 1
1456 1941 1942 1
1457 1941 1943 1
1458 1941 1944 1
1459 1945 1946 1
1460 1945 1947 1
1461 1945 1948 1
1462 1949 1950 1
1463 1949 1951 1
1464 1949 1952 1
1465 1953 1954 1
1466 1953 1955 1
1467 1953 1956 1
1468 1957 1958 1
1469 1957 1959 1
1470 1957 1960 1
1471 1961 1962 1
1472 1961 1963 1
1473 1961 1964 1
1474 1965 1966 1
1475 1965 1967 1
1476 1965 1968 1
1477 1969 1970 1
1478 1969 1971 1
1479 1969 1972 1
1480 1973 1974 1
1481 1973 1975 1
1482 1973 1976 1
1483 1977 1978 1
1484 1977 1979 1
1485 1977 1980 1
1486 1981 1982 1
1487 1981 1983 1
1488 1981 1984 1
1489 1985 1986 1
1490 1985 1987 1
1491 1985 1988 1
1492 1989 1990 1
1493 1989 1991 1
1494 1989 1992 1
1495 1993 1994 1
1496 1993 1995 1
1497 1993 1996 1
1498 1997 1998 1
1499 1997 1999 1
1500 1997 2000 1
1501 2001 2002 1
1502 2001 2003 1
1503 2001 2004 1
1504 2005 2006 1
1505 2005 2007 1
1506 2005 2008 1
1507 2009 2010 1
1508 2009 2011 1
1509 2009 2012 1
1510 2013 2014 1
1511 2013 2015 1
1512 2013 2016 1
1513 2017 2018 1
1514 2017 2019 1
1515 2017 2020 1
1516 2021 2022 1
1517 2021 2023 1
1518 2021 2024 1
1519 2025 2026 1
1520 2025 2027 1
1521 2025 2028 1
1522 2029 2030 1
1523 2029 2031 1
1524 2029 2032 1
1525 2033 2034 1
1526 2033 2035 1
1527 2033 2036 1
1528 2037 2038 1
1529 2037 2039 1
1530 2037 2040 1
1531 2041 2042 1
1532 2041 2043 1
1533 2041 2044 1
1534 2045 2046 1
1535 2045 2047 1
1536 2045 2048 1
1537 2049 2050 1
1538 2049 2051 1
1539 2049 2052 1
1540 2053 2054 1
1541 2053 2055 1
1542 2053 2056 1
1543 2057 2058 1
1544 2057 2059 1
1545 2057 2060 1
1546 2061 2062 1
1547 2061 2063 1
1548 2061 2064 1
1549 2065 2066 1
1550 2065 2067 1
1551 2065 2068 1
1552 2069 2070 1
1553 2069 2071 1
1554 2069 2072 1
1555 2073 2074 1
1556 2073 2075 1
1557 2073 2076 1
1558 2077 2078 1
1559 2077 2079 1
1560 2077 2080 1
1561 2081 2082 1
1562 2081 2083 1
1563 2081 2084 1
1564 2085 2086 1
1565 2085 2087 1
1566 2085 2088 1
1567 2089 2090 1
1568 2089 2091 1
1569 2089 2092 1
1570 2093 2094 1
1571 2093 2095 1
1572 2093 2096 1
1573 2097 2099 1
1574 2097 2098 1
1575 2097 2100 1
1576 2101 2102 1
1577 2101 2103 1
1578 2101 2104 1
1579 2105 2106 1
1580 2105 2107 1
1581 2105 2108 1
1582 2109 2110 1
1583 2109 2111 1
1584 2109 2112 1
1585 2113 2114 1
1586 2113 2115 1
1587 2113 2116 1
1588 2117 2118 1
1589 2117 2119 1
1590 2117 2120 1
1591 2121 2122 1
1592 2121 2123 1
1593 2121 2124 1
1594 2125 2126 1
1595 2125 2127 1
1596 2125 2128 1
1597 2129 2130 1
1598 2129 2131 1
1599 2129 2132 1
1600 2133 2134 1
1601 2133 2135 1
1602 2133 2136 1
1603 2137 2138 1
1604 2137 2139 1
1605 2137 2140 1
1606 2141 2142 1
1607 2141 2143 1
1608 2141 2144 1
1609 2145 2146 1
1610 2145 2147 1
1611 2145 2148 1
1612 2149 2150 1
1613 2149 2151 1
1614 2149 2152 1
1615 2153 2154 1
1616 2153 2155 1
1617 2153 2156 1
1618 2157 2158 1
1619 2157 2159 1
1620 2157 2160 1
1621 2161 2162 1
1622 2161 2163 1
1623 2161 2164 1
1624 2165 2166 1
1625 2165 2167 1
1626 2165 2168 1
1627 2169 2170 1
1628 2169 2171 1
1629 2169 2172 1
1630 2173 2175 1
1631 2173 2176 1
1632 2173 2174 1
1633 2177 2178 1
1634 2177 2179 1
1635 2177 2180 1
1636 2181 2182 1
1637 2181 2183 1
1638 2181 2184 1
1639 2185 2186 1
1640 2185 2187 1
1641 2185 2188 1
1642 2189 2190 1
1643 2189 2191 1
1644 2189 2192 1
1645 2193 2194 1
1646 2193 2195 1
1647 2193 2196 1
1648 2197 2198 1
1649 2197 2199 1
1650 2197 2200 1
1651 2201 2202 1
1652 2201 2203 1
1653 2201 2204 1
1654 2205 2206 1
1655 2205 2207 1
1656 2205 2208 1
1657 2209 2210 1
1658 2209 2211 1
1659 2209 2212 1
1660 2213 2214 1
1661 2213 2215 1
1662 2213 2216 1
1663 2217 2218 1
1664 2217 2219 1
1665 2217 2220 1
1666 2221 2222 1
1667 2221 2223 1
1668 2221 2224 1
1669 2225 2226 1
1670 2225 2227 1
1671 2225 2228 1
1672 2229 2230 1
1673 2229 2231 1
1674 2229 2232 1
1675 2233 2234 1
1676 2233 2235 1
1677 2233 2236 1
1678 2237 2238 1
1679 2237 2239 1
1680 2237 2240 1
1681 2241 2242 1
1682 2241 2243 1
1683 2241 2244 1
1684 2245 2246 1
1685 2245 2247 1
1686 2245 2248 1
1687 2249 2250 1
1688 2249 2251 1
1689 2249 2252 1
1690 2253 2254 1
1691 2253 2255 1
1692 2253 2256 1
1693 2257 2258 1
1694 2257 2259 1
1695 2257 2260 1
1696 2261 2262 1
1697 2261 2263 1
1698 2261 2264 1
1699 2265 2266 1
1700 2265 2267 1
1701 2265 2268 1
1702 2269 2270 1
1703 2269 2271 1
1704 2269 2272 1
1705 2273 2274 1
1706 2273 2275 1
1707 2273 2276 1
1708 2277 2278 1
1709 2277 2279 1
1710 2277 2280 1
1711 2281 2282 1
1712 2281 2283 1
1713 2281 2284 1
1714 2285 2286 1
1715 2285 2287 1
1716 2285 2288 1
1717 2289 2290 1
1718 2289 2291 1
1719 2289 2292 1
1720 2293 2294 1
1721 2293 2295 1
1722 2293 2296 1
1723 2297 2298 1
1724 2297 2299 1
1725 2297 2300 1
1726 2301 2302 1
1727 2301 2303 1
1728 2301 2304 1
1729 2305 2306 1
1730 2305 2307 1
1731 2305 2308 1
1732 2309 2310 1
1733 2309 2311 1
1734 2309 2312 1
1735 2313 2314 1
1736 2313 2315 1
1737 2313 2316 1
1738 2317 2318 1
1739 2317 2319 1
1740 2317 2320 1
1741 2321 2322 1
1742 2321 2323 1
1743 2321 2324 1
1744 2325 2326 1
1745 2325 2327 1
1746 2325 2328 1
1747 2329 2330 1
1748 2329 2331 1
1749 2329 2332 1
1750 2333 2334 1
1751 2333 2335 1
1752 2333 2336 1
1753 2337 2338 1
1754 2337 2339 1
1755 2337 2340 1
1756 2341 2342 1
1757 2341 2343 1
1758 2341 2344 1
1759 2345 2346 1
1760 2345 2347 1
1761 2345 2348 1
1762 2349 2350 1
1763 2349 2351 1
1764 2349 2352 1
1765 2353 2354 1
1766 2353 2355 1
1767 2353 2356 1
1768 2357 2358 1
1769 2357 2359 1
1770 2357 2360 1
1771 2361 2364 1
1772 2361 2362 1
1773 2361 2363 1
1774 2365 2366 1
1775 2365 2367 1
1776 2365 2368 1
1777 2369 2370 1
1778 2369 2371 1
1779 2369 2372 1
1780 2373 2374 1
1781 2373 2375 1
1782 2373 2376 1
1783 2377 2378 1
1784 2377 2379 1
1785 2377 2380 1
1786 2381 2382 1
1787 2381 2383 1
1788 2381 2384 1
1789 2385 2386 1
1790 2385 2387 1
1791 2385 2388 1
1792 2389 2390 1
1793 2389 2391 1
1794 2389 2392 1
1795 2393 2394 1
1796 2393 2395 1
1797 2393 2396 1
1798 2397 2398 1
1799 2397 2399 1
1800 2397 2400 1
1801 2401 2402 1
1802 2401 2403 1
1803 2401 2404 1
1804 2405 2406 1
1805 2405 2407 1
1806 2405 2408 1
1807 2409 2410 1
1808 2409 2411 1
1809 2409 2412 1
1810 2413 2414 1
1811 2413 2415 1
1812 2413 2416 1
1813 2417 2418 1
1814 2417 2419 1
1815 2417 2420 1
1816 2421 2422 1
1817 2421 2423 1
1818 2421 2424 1
1819 2425 2427 1
1820 2425 2428 1
1821 2425 2426 1
1822 2429 2432 1
1823 2429 2430 1
1824 2429 2431 1
1825 2433 2434 1
1826 2433 2435 1
1827 2433 2436 1
1828 2437 2438 1
1829 2437 2439 1
1830 2437 2440 1
1831 2441 2442 1
1832 2441 2443 1
1833 2441 2444 1
1834 2445 2446 1
1835 2445 2447 1
1836 2445 2448 1
1837 2449 2450 1
1838 2449 2451 1
1839 2449 2452 1
1840 2453 2454 1
1841 2453 2455 1
1842 2453 2456 1
1843 2457 2458 1
1844 2457 2459 1
1845 2457 2460 1
1846 2461 2462 1
1847 2461 2463 1
1848 2461 2464 1
1849 2465 2466 1
1850 2465 2467 1
1851 2465 2468 1
1852 2469 2470 1
1853 2469 2471 1
1854 2469 2472 1
1855 2473 2474 1
1856 2473 2475 1
1857 2473 2476 1
1858 2477 2478 1
1859 2477 2479 1
1860 2477 2480 1
1861 2481 2482 1
1862 2481 2483 1
1863 2481 2484 1
1864 2485 2488 1
1865 2485 2486 1
1866 2485 2487 1
1867 2489 2490 1
1868 2489 2491 1
1869 2489 2492 1
1870 2493 2494 1
1871 2493 2495 1
1872 2493 2496 1
1873 2497 2498 1
1874 2497 2499 1
1875 2497 2500 1
1876 2501 2502 1
1877 2501 2503 1
1878 2501 2504 1
1879 2505 2506 1
1880 2505 2507 1
1881 2505 2508 1
1882 2509 2510 1
1883 2509 2511 1
1884 2509 2512 1
1885 2513 2514 1
1886 2513 2515 1
1887 2513 2516 1
1888 2517 2518 1
1889 2517 2519 1
1890 2517 2520 1
1891 2521 2522 1
1892 2521 2523 1
1893 2521 2524 1
1894 2525 2526 1
1895 2525 2527 1
1896 2525 2528 1
1897 2529 2530 1
1898 2529 2531 1
1899 2529 2532 1
1900 2533 2534 1
1901 2533 2535 1
1902 2533 2536 1
1903 2537 2538 1
1904 2537 2539 1
1905 2537 2540 1
1906 2541 2542 1
1907 2541 2543 1
1908 2541 2544 1
1909 2545 2546 1
1910 2545 2547 1
1911 2545 2548 1
1912 2549 2550 1
1913 2549 2551 1
1914 2549 2552 1
1915 2553 2554 1
1916 2553 2555 1
1917 2553 2556 1
1918 2557 2558 1
1919 2557 2559 1
1920 2557 2560 1
1921 2561 2562 1
1922 2561 2563 1
1923 2561 2564 1
1924 2565 2566 1
1925 2565 2567 1
1926 2565 2568 1
1927 2569 2570 1
1928 2569 2571 1
1929 2569 2572 1
1930 2573 2574 1
1931 2573 2575 1
1932 2573 2576 1
1933 2577 2578 1
1934 2577 2579 1
1935 2577 2580 1
1936 2581 2582 1
1937 2581 2583 1
1938 2581 2584 1
1939 2585 2586 1
1940 2585 2587 1
1941 2585 2588 1
1942 2589 2590 1
1943 2589 2591 1
1944 2589 2592 1
1945 2593 2594 1
1946 2593 2595 1
1947 2593 2596 1
1948 2597 2598 1
1949 2597 2599 1
1950 2597 2600 1
1951 2601 2602 1
1952 2601 2603 1
1953 2601 2604 1
1954 2605 2606 1
1955 2605 2607 1
1956 2605 2608 1
1957 2609 2610 1
1958 2609 2611 1
1959 2609 2612 1
1960 2613 2614 1
1961 2613 2615 1
1962 2613 2616 1
1963 2617 2618 1
1964 2617 2619 1
1965 2617 2620 1
1966 2621 2622 1
1967 2621 2623 1
1968 2621 2624 1
1969 2625 2626 1
1970 2625 2627 1
1971 2625 2628 1
1972 2629 2630 1
1973 2629 2631 1
1974 2629 2632 1
1975 2633 2634 1
1976 2633 2635 1
1977 2633 2636 1
1978 2637 2638 1
1979 2637 2639 1
1980 2637 2640 1
1981 2641 2642 1
1982 2641 2643 1
1983 2641 2644 1
1984 2645 2646 1
1985 2645 2647 1
1986 2645 2648 1
1987 2649 2650 1
1988 2649 2651 1
1989 2649 2652 1
1990 2653 2654 1
1991 2653 2655 1
1992 2653 2656 1
1993 2657 2658 1
1994 2657 2659 1
1995 2657 2660 1
1996 2661 2662 1
1997 2661 2663 1
1998 2661 2664 1
1999 2665 2666 1
2000 2665 2667 1
2001 2665 2668 1
2002 2669 2670 1
2003 2669 2671 1
2004 2669 2672 1
2005 2673 2674 1
2006 2673 2675 1
2007 2673 2676 1
2008 2677 2679 1
2009 2677 2680 1
2010 2677 2678 1
2011 2681 2682 1
2012 2681 2683 1
2013 2681 2684 1
2014 2685 2686 1
2015 2685 2687 1
2016 2685 2688 1
2017 2689 2690 1
2018 2689 2691 1
2019 2689 2692 1
2020 2693 2694 1
2021 2693 2695 1
2022 2693 2696 1
2023 2697 2698 1
2024 2697 2699 1
2025 2697 2700 1
2026 2701 2702 1
2027 2701 2703 1
2028 2701 2704 1
2029 2705 2706 1
2030 2705 2707 1
2031 2705 2708 1
2032 2709 2710 1
2033 2709 2711 1
2034 2709 2712 1
2035 2713 2714 1
2036 2713 2715 1
2037 2713 2716 1
2038 2717 2718 1
2039 2717 2719 1
2040 2717 2720 1
2041 2721 2722 1
2042 2721 2723 1
2043 2721 2724 1
2044 2725 2726 1
2045 2725 2727 1
2046 2725 2728 1
2047 2729 2730 1
2048 2729 2731 1
2049 2729 2732 1
2050 2733 2734 1
2051 2733 2735 1
2052 2733 2736 1
2053 2737 2738 1
2054 2737 2739 1
2055 2737 2740 1
2056 2741 2742 1
2057 2741 2743 1
2058 2741 2744 1
2059 2745 2746 1
2060 2745 2747 1
2061 2745 2748 1
2062 2749 2750 1
2063 2749 2751 1
2064 2749 2752 1
2065 2753 2754 1
2066 2753 2755 1
2067 2753 2756 1
2068 2757 2758 1
2069 2757 2759 1
2070 2757 2760 1
2071 2761 2762 1
2072 2761 2763 1
2073 2761 2764 1
2074 2765 2766 1
2075 2765 2767 1
2076 2765 2768 1
2077 2769 2770 1
2078 2769 2771 1
2079 2769 2772 1
2080 2773 2774 1
2081 2773 2775 1
2082 2773 2776 1
2083 2777 2778 1
2084 2777 2779 1
2085 2777 2780 1
2086 2781 2782 1
2087 2781 2783 1
2088 2781 2784 1
2089 2785 2786 1
2090 2785 2787 1
2091 2785 2788 1
2092 2789 2790 1
2093 2789 2791 1
2094 2789 2792 1
2095 2793 2794 1
2096 2793 2795 1
2097 2793 2796 1
2098 2797 2798 1
2099 2797 2799 1
2100 2797 2800 1
2101 2801 2802 1
2102 2801 2803 1
2103 2801 2804 1
2104 2805 2806 1
2105 2805 2807 1
2106 2805 2808 1
2107 2809 2810 1
2108 2809 2811 1
2109 2809 2812 1
2110 2813 2814 1
2111 2813 2815 1
2112 2813 2816 1
2113 2817 2818 1
2114 2817 2819 1
2115 2817 2820 1
2116 2821 2822 1
2117 2821 2823 1
2118 2821 2824 1
2119 2825 2826 1
2120 2825 2827 1
2121 2825 2828 1
2122 2829 2830 1
2123 2829 2831 1
2124 2829 2832 1
2125 2833 2834 1
2126 2833 2835 1
2127 2833 2836 1
2128 2837 2838 1
2129 2837 2839 1
2130 2837 2840 1
2131 2841 2842 1
2132 2841 2843 1
2133 2841 2844 1
2134 2845 2846 1
2135 2845 2847 1
2136 2845 2848 1
2137 2849 2850 1
2138 2849 2851 1
2139 2849 2852 1
2140 2853 2854 1
2141 2853 2855 1
2142 2853 2856 1
2143 2857 2858 1
2144 2857 2859 1
2145 2857 2860 1
2146 2861 2862 1
2147 2861 2863 1
2148 2861 2864 1
2149 2865 2868 1
2150 2865 2866 1
2151 2865 2867 1
2152 2869 2870 1
2153 2869 2871 1
2154 2869 2872 1
2155 2873 2874 1
2156 2873 2875 1
2157 2873 2876 1
2158 2877 2878 1
2159 2877 2879 1
2160 2877 2880 1
2161 2881 2882 1
2162 2881 2883 1
2163 2881 2884 1
2164 2885 2886 1
2165 2885 2887 1
2166 2885 2888 1
2167 2889 2890 1
2168 2889 2891 1
2169 2889 2892 1
2170 2893 2894 1
2171 2893 2895 1
2172 2893 2896 1
2173 2897 2898 1
2174 2897 2899 1
2175 2897 2900 1
2176 2901 2902 1
2177 2901 2903 1
2178 2901 2904 1
2179 2905 2906 1
2180 2905 2907 1
2181 2905 2908 1
2182 2909 2910 1
2183 2909 2911 1
2184 2909 2912 1
2185 2913 2915 1
2186 2913 2914 1
2187 2913 2916 1
2188 2917 2918 1
2189 2917 2919 1
2190 2917 2920 1
2191 2921 2922 1
2192 2921 2923 1
2193 2921 2924 1
2194 2925 2926 1
2195 2925 2927 1
2196 2925 2928 1
2197 2929 2931 1
2198 2929 2932 1
2199 2929 2930 1
2200 2933 2934 1
2201 2933 2935 1
2202 2933 2936 1
2203 2937 2938 1
2204 2937 2939 1
2205 2937 2940 1
2206 2941 2942 1
2207 2941 2943 1
2208 2941 2944 1
2209 2945 2946 1
2210 2945 2947 1
2211 2945 2948 1
2212 2949 2950 1
2213 2949 2951 1
2214 2949 2952 1
2215 2953 2954 1
2216 2953 2955 1
2217 2953 2956 1
2218 2957 2958 1
2219 2957 2959 1
2220 2957 2960 1
2221 2961 2962 1
2222 2961 2963 1
2223 2961 2964 1
2224 2965 2966 1
2225 2965 2967 1
2226 2965 2968 1
2227 2969 2970 1
2228 2969 2971 1
2229 2969 2972 1
2230 2973 2974 1
2231 2973 2975 1
2232 2973 2976 1
2233 2977 2978 1
2234 2977 2979 1
2235 2977 2980 1
2236 2981 2982 1
2237 2981 2983 1
2238 2981 2984 1
2239 2985 2986 1
2240 2985 2987 1
2241 2985 2988 1
2242 2989 2990 1
2243 2989 2991 1
2244 2989 2992 1
2245 2993 2994 1
2246 2993 2995 1
2247 2993 2996 1
2248 2997 2998 1
2249 2997 2999 1
2250 2997 3000 1
2251 3001 3002 1
2252 3001 3003 1
2253 3001 3004 1
2254 3005 3006 1
2255 3005 3007 1
2256 3005 3008 1
2257 3009 3010 1
2258 3009 3011 1
2259 3009 3012 1
2260 3013 3014 1
2261 3013 3015 1
2262 3013 3016 1
2263 3017 3018 1
2264 3017 3019 1
2265 3017 3020 1
2266 3021 3022 1
2267 3021 3023 1
2268 3021 3024 1
2269 3025 3026 1
2270 3025 3027 1
2271 3025 3028 1
2272 3029 3030 1
2273 3029 3031 1
2274 3029 3032 1
2275 3033 3034 1
2276 3033 3035 1
2277 3033 3036 1
2278 3037 3038 1
2279 3037 3039 1
2280 3037 3040 1
2281 3041 3042 1
2282 3041 3043 1
2283 3041 3044 1
2284 3045 3046 1
2285 3045 3047 1
2286 3045 3048 1
2287 3049 3050 1
2288 3049 3051 1
2289 3049 3052 1
2290 3053 3056 1
2291 3053 3054 1
2292 3053 3055 1
2293 3057 3058 1
2294 3057 3059 1
2295 3057 3060 1
2296 3061 3062 1
2297 3061 3063 1
2298 3061 3064 1
2299 3065 3066 1
2300 3065 3067 1
2301 3065 3068 1
2302 3069 3070 1
2303 3069 3071 1
2304 3069 3072 1
2305 3073 3074 1
2306 3073 3075 1
2307 3073 3076 1
2308 3077 3078 1
2309 3077 3079 1
2310 3077 3080 1
2311 3081 3082 1
2312 3081 3083 1
2313 3081 3084 1
2314 3085 3086 1
2315 3085 3087 1
2316 3085 3088 1
2317 3089 3090 1
2318 3089 3091 1
2319 3089 3092 1
2320 3093 3094 1
2321 3093 3095 1
2322 3093 3096 1
2323 3097 3098 1
2324 3097 3099 1
2325 3097 3100 1
2326 3101 3102 1
2327 3101 3103 1
2328 3101 3104 1
2329 3105 3106 1
2330 3105 3107 1
2331 3105 3108 1
2332 3109 3110 1
2333 3109 3111 1
2334 3109 3112 1
2335 3113 3114 1
2336 3113 3115 1
2337 3113 3116 1
2338 3117 3118 1
2339 3117 3119 1
2340 3117 3120 1
2341 3121 3122 1
2342 3121 3123 1
2343 3121 3124 1
2344 3125 3126 1
2345 3125 3127 1
2346 3125 3128 1
2347 3129 3130 1
2348 3129 3131 1
2349 3129 3132 1
2350 3133 3134 1
2351 3133 3135 1
2352 3133 3136 1
2353 3137 3138 1
2354 3137 3139 1
2355 3137 3140 1
2356 3141 3142 1
2357 3141 3143 1
2358 3141 3144 1
2359 3145 3146 1
2360 3145 3147 1
2361 3145 3148 1
2362 3149 3150 1
2363 3149 3151 1
2364 3149 3152 1
2365 3153 3154 1
2366 3153 3155 1
2367 3153 3156 1
2368 3157 3158 1
2369 3157 3159 1
2370 3157 3160 1
2371 3161 3162 1
2372 3161 3163 1
2373 3161 3164 1
2374 3165 3166 1
2375 3165 3167 1
2376 3165 3168 1
2377 3169 3170 1
2378 3169 3171 1
2379 3169 3172 1
2380 3173 3174 1
2381 3173 3175 1
2382 3173 3176 1
2383 3177 3178 1
2384 3177 3179 1
2385 3177 3180 1
2386 3181 3183 1
2387 3181 3184 1
2388 3181 3182 1
2389 3185 3186 1
2390 3185 3187 1
2391 3185 3188 1
2392 3189 3190 1
2393 3189 3191 1
2394 3189 3192 1
2395 3193 3194 1
2396 3193 3195 1
2397 3193 3196 1
2398 3197 3198 1
2399 3197 3199 1
2400 3197 3200 1
2401 3201 3202 1
2402 3201 3203 1
2403 3201 3204 1
2404 3205 3206 1
2405 3205 3207 1
2406 3205 3208 1
2407 3209 3210 1
2408 3209 3211 1
2409 3209 3212 1
2410 3213 3214 1
2411 3213 3215 1
2412 3213 3216 1
2413 3217 3218 1
2414 3217 3219 1
2415 3217 3220 1
2416 3221 3222 1
2417 3221 3223 1
2418 3221 3224 1
2419 3225 3226 1
2420 3225 3227 1
2421 3225 3228 1
2422 3229 3230 1
2423 3229 3231 1
2424 3229 3232 1
2425 3233 3234 1
2426 3233 3235 1
2427 3233 3236 1
2428 3237 3238 1
2429 3237 3239 1
2430 3237 3240 1
2431 3241 3242 1
2432 3241 3243 1
2433 3241 3244 1
2434 3245 3246 1
2435 3245 3247 1
2436 3245 3248 1
2437 3249 3250 1
2438 3249 3251 1
2439 3249 3252 1
2440 3253 3254 1
2441 3253 3255 1
2442 3253 3256 1
2443 3257 3258 1
2444 3257 3259 1
2445 3257 3260 1
2446 3261 3262 1
2447 3261 3263 1
2448 3261 3264 1
2449 3265 3266 1
2450 3265 3267 1
2451 3265 3268 1
2452 3269 3270 1
2453 3269 3271 1
2454 3269 3272 1
2455 3273 3274 1
2456 3273 3275 1
2457 3273 3276 1
2458 3277 3278 1
2459 3277 3279 1
2460 3277 3280 1
2461 3281 3282 1
2462 3281 3283 1
2463 3281 3284 1
2464 3285 3286 1
2465 3285 3287 1
2466 3285 3288 1
2467 3289 3290 1
2468 3289 3291 1
2469 3289 3292 1
2470 3293 3294 1
2471 3293 3295 1
2472 3293 3296 1
2473 3297 3298 1
2474 3297 3299 1
2475 3297 3300 1
2476 3301 3302 1
2477 3301 3303 1
2478 3301 3304 1
2479 3305 3307 1
2480 3305 3308 1
2481 3305 3306 1
2482 3309 3310 1
2483 3309 3311 1
2484 3309 3312 1
2485 3313 3314 1
2486 3313 3315 1
2487 3313 3316 1
2488 3317 3318 1
2489 3317 3319 1
2490 3317 3320 1
2491 3321 3322 1
2492 3321 3323 1
2493 3321 3324 1
2494 3325 3326 1
2495 3325 3327 1
2496 3325 3328 1
2497 3329 3330 1
2498 3329 3331 1
2499 3329 3332 1
2500 3333 3334 1
2501 3333 3335 1
2502 3333 3336 1
2503 3337 3338 1
2504 3337 3339 1
2505 3337 3340 1
2506 3341 3342 1
2507 3341 3343 1
2508 3341 3344 1
2509 3345 3346 1
2510 3345 3347 1
2511 3345 3348 1
2512 3349 3350 1
2513 3349 3351 1
2514 3349 3352 1
2515 3353 3354 1
2516 3353 3355 1
2517 3353 3356 1
2518 3357 3358 1
2519 3357 3359 1
2520 3357 3360 1
2521 3361 3362 1
2522 3361 3363 1
2523 3361 3364 1
2524 3365 3366 1
2525 3365 3367 1
2526 3365 3368 1
2527 3369 3372 1
2528 3369 3370 1
2529 3369 3371 1
2530 3373 3374 1
2531 3373 3375 1
2532 3373 3376 1
2533 3377 3378 1
2534 3377 3379 1
2535 3377 3380 1
2536 3381 3382 1
2537 3381 3383 1
2538 3381 3384 1
2539 3385 3386 1
2540 3385 3387 1
2541 3385 3388 1
2542 3389 3390 1
2543 3389 3391 1
2544 3389 3392 1
2545 3393 3394 1
2546 3393 3395 1
2547 3393 3396 1
2548 3397 3398 1
2549 3397 3399 1
2550 3397 3400 1
2551 3401 3402 1
2552 3401 3403 1
2553 3401 3404 1
2554 3405 3406 1
2555 3405 3407 1
2556 3405 3408 1
2557 3409 3410 1
2558 3409 3411 1
2559 3409 3412 1
2560 3413 3414 1
2561 3413 3415 1
2562 3413 3416 1
2563 3417 3418 1
2564 3417 3419 1
2565 3417 3420 1
2566 3421 3422 1
2567 3421 3423 1
2568 3421 3424 1
2569 3425 3426 1
2570 3425 3427 1
2571 3425 3428 1
2572 3429 3430 1
2573 3429 3431 1
2574 3429 3432 1
2575 3433 3434 1
2576 3433 3435 1
2577 3433 3436 1
2578 3437 3438 1
2579 3437 3439 1
2580 3437 3440 1
2581 3441 3442 1
2582 3441 3443 1
2583 3441 3444 1
2584 3445 3446 1
2585 3445 3447 1
2586 3445 3448 1
2587 3449 3450 1
2588 3449 3451 1
2589 3449 3452 1
2590 3453 3454 1
2591 3453 3455 1
2592 3453 3456 1
2593 3457 3458 1
2594 3457 3459 1
2595 3457 3460 1
2596 3461 3462 1
2597 3461 3463 1
2598 3461 3464 1
2599 3465 3466 1
2600 3465 3467 1
2601 3465 3468 1
2602 3469 3470 1
2603 3469 3471 1
2604 3469 3472 1
2605 3473 3474 1
2606 3473 3475 1
2607 3473 3476 1
2608 3477 3478 1
2609 3477 3479 1
2610 3477 3480 1
2611 3481 3482 1
2612 3481 3483 1
2613 3481 3484 1
2614 3485 3486 1
2615 3485 3487 1
2616 3485 3488 1
2617 3489 3490 1
2618 3489 3491 1
2619 3489 3492 1
2620 3493 3496 1
2621 3493 3494 1
2622 3493 3495 1
2623 3497 3499 1
2624 3497 3498 1
2625 3497 3500 1
2626 3501 3502 1
2627 3501 3503 1
2628 3501 3504 1
2629 3505 3506 1
2630 3505 3507 1
2631 3505 3508 1
2632 3509 3510 1
2633 3509 3511 1
2634 3509 3512 1
2635 3513 3514 1
2636 3513 3515 1
2637 3513 3516 1
2638 3517 3518 1
2639 3517 3519 1
2640 3517 3520 1
2641 3521 3522 1
2642 3521 3523 1
2643 3521 3524 1
2644 3525 3526 1
2645 3525 3527 1
2646 3525 3528 1
2647 3529 3530 1
2648 3529 3531 1
2649 3529 3532 1
2650 3533 3534 1
2651 3533 3535 1
2652 3533 3536 1
2653 3537 3538 1
2654 3537 3539 1
2655 3537 3540 1
2656 3541 3542 1
2657 3541 3543 1
2658 3541 3544 1
2659 3545 3546 1
2660 3545 3547 1
2661 3545 3548 1
2662 3549 3550 1
2663 3549 3551 1
2664 3549 3552 1
2665 3553 3554 1
2666 3553 3555 1
2667 3553 3556 1
2668 3557 3559 1
2669 3557 3560 1
2670 3557 3558 1
2671 3561 3562 1
2672 3561 3563 1
2673 3561 3564 1
2674 3565 3566 1
2675 3565 3567 1
2676 3565 3568 1
2677 3569 3570 1
2678 3569 3571 1
2679 3569 3572 1
2680 3573 3574 1
2681 3573 3575 1
2682 3573 3576 1
2683 3577 3578 1
2684 3577 3579 1
2685 3577 3580 1
2686 3581 3582 1
2687 3581 3583 1
2688 3581 3584 1
2689 3585 3586 1
2690 3585 3587 1
2691 3585 3588 1
2692 3589 3590 1
2693 3589 3591 1
2694 3589 3592 1
2695 3593 3594 1
2696 3593 3595 1
2697 3593 3596 1
2698 3597 3598 1
2699 3597 3599 1
2700 3597 3600 1
2701 3601 3602 1
2702 3601 3603 1
2703 3601 3604 1
2704 3605 3606 1
2705 3605 3607 1
2706 3605 3608 1
2707 3609 3610 1
2708 3609 3611 1
2709 3609 3612 1
2710 3613 3614 1
2711 3613 3615 1
2712 3613 3616 1
2713 3617 3618 1
2714 3617 3619 1
2715 3617 3620 1
2716 3621 3622 1
2717 3621 3623 1
2718 3621 3624 1
2719 3625 3626 1
2720 3625 3627 1
2721 3625 3628 1
2722 3629 3630 1
2723 3629 3631 1
2724 3629 3632 1
2725 3633 3634 1
2726 3633 3635 1
2727 3633 3636 1
2728 3637 3638 1
2729 3637 3639 1
2730 3637 3640 1
2731 3641 3642 1
2732 3641 3643 1
2733 3641 3644 1
2734 3645 3646 1
2735 3645 3647 1
2736 3645 3648 1
2737 3649 3650 1
2738 3649 3651 1
2739 3649 3652 1
2740 3653 3654 1
2741 3653 3655 1
2742 3653 3656 1
2743 3657 3658 1
2744 3657 3659 1
2745 3657 3660 1
2746 3661 3662 1
2747 3661 3663 1
2748 3661 3664 1
2749 3665 3666 1
2750 3665 3667 1
2751 3665 3668 1
2752 3669 3670 1
2753 3669 3671 1
2754 3669 3672 1
2755 3673 3674 1
2756 3673 3675 1
2757 3673 3676 1
2758 3677 3678 1
2759 3677 3679 1
2760 3677 3680 1
2761 3681 3682 1
2762 3681 3683 1
2763 3681 3684 1
2764 3685 3687 1
2765 3685 3688 1
2766 3685 3686 1
2767 3689 3690 1
2768 3689 3691 1
2769 3689 3692 1
2770 3693 3694 1
2771 3693 3695 1
2772 3693 3696 1
2773 3697 3698 1
2774 3697 3699 1
2775 3697 3700 1
2776 3701 3702 1
2777 3701 3703 1
2778 3701 3704 1
2779 3705 3706 1
2780 3705 3707 1
2781 3705 3708 1
2782 3709 3710 1
2783 3709 3711 1
2784 3709 3712 1
2785 3713 3714 1
2786 3713 3715 1
2787 3713 3716 1
2788 3717 3718 1
2789 3717 3719 1
2790 3717 3720 1
2791 3721 3722 1
2792 3721 3723 1
2793 3721 3724 1
2794 3725 3726 1
2795 3725 3727 1
2796 3725 3728 1
2797 3729 3730 1
2798 3729 3731 1
2799 3729 3732 1
2800 3733 3734 1
2801 3733 3735 1
2802 3733 3736 1
2803 3737 3738 1
2804 3737 3739 1
2805 3737 3740 1
2806 3741 3742 1
2807 3741 3743 1
2808 3741 3744 1
2809 3745 3746 1
2810 3745 3747 1
2811 3745 3748 1
2812 3749 3750 1
2813 3749 3751 1
2814 3749 3752 1
2815 3753 3754 1
2816 3753 3755 1
2817 3753 3756 1
2818 3757 3758 1
2819 3757 3759 1
2820 3757 3760 1
2821 3761 3762 1
2822 3761 3763 1
2823 3761 3764 1
2824 3765 3766 1
2825 3765 3767 1
2826 3765 3768 1
2827 3769 3770 1
2828 3769 3771 1
2829 3769 3772 1
2830 3773 3774 1
2831 3773 3775 1
2832 3773 3776 1
2833 3777 3778 1
2834 3777 3779 1
2835 3777 3780 1
2836 3781 3782 1
2837 3781 3783 1
2838 3781 3784 1
2839 3785 3786 1
2840 3785 3787 1
2841 3785 3788 1
2842 3789 3790 1
2843 3789 3791 1
2844 3789 3792 1
2845 3793 3794 1
2846 3793 3795 1
2847 3793 3796 1
2848 3797 3798 1
2849 3797 3799 1
2850 3797 3800 1
2851 3801 3802 1
2852 3801 3803 1
2853 3801 3804 1
2854 3805 3806 1
2855 3805 3807 1
2856 3805 3808 1
2857 3809 3811 1
2858 3809 3810 1
2859 3809 3812 1
2860 3813 3814 1
2861 3813 3815 1
2862 3813 3816 1
2863 3817 3818 1
2864 3817 3819 1
2865 3817 3820 1
2866 3821 3822 1
2867 3821 3823 1
2868 3821 3824 1
2869 3825 3826 1
2870 3825 3827 1
2871 3825 3828 1
2872 3829 3830 1
2873 3829 3831 1
2874 3829 3832 1
2875 3833 3834 1
2876 3833 3835 1
2877 3833 3836 1
2878 3837 3838 1
2879 3837 3839 1
2880 3837 3840 1
2881 3841 3842 1
2882 3841 3843 1
2883 3841 3844 1
2884 3845 3846 1
2885 3845 3847 1
2886 3845 3848 1
2887 3849 3850 1
2888 3849 3851 1
2889 3849 3852 1
2890 3853 3854 1
2891 3853 3855 1
2892 3853 3856 1
2893 3857 3858 1
2894 3857 3860 1
2895 3857 3859 1
2896 3861 3862 1
2897 3861 3863 1
2898 3861 3864 1
2899 3865 3866 1
2900 3865 3867 1
2901 3865 3868 1
2902 3869 3870 1
2903 3869 3871 1
2904 3869 3872 1
2905 3873 3876 1
2906 3873 3874 1
2907 3873 3875 1
2908 3877 3878 1
2909 3877 3879 1
2910 3877 3880 1
2911 3881 3882 1
2912 3881 3883 1
2913 3881 3884 1
2914 3885 3886 1
2915 3885 3887 1
2916 3885 3888 1
2917 3889 3890 1
2918 3889 3891 1
2919 3889 3892 1
2920 3893 3894 1
2921 3893 3895 1
2922 3893 3896 1
2923 3897 3898 1
2924 3897 3899 1
2925 3897 3900 1
2926 3901 3902 1
2927 3901 3903 1
2928 3901 3904 1
2929 3905 3906 1
2930 3905 3907 1
2931 3905 3908 1
2932 3909 3911 1
2933 3909 3910 1
2934 3909 3912 1
2935 3913 3914 1
2936 3913 3915 1
2937 3913 3916 1
2938 3917 3918 1
2939 3917 3919 1
2940 3917 3920 1
2941 3921 3922 1
2942 3921 3923 1
2943 3921 3924 1
2944 3925 3926 1
2945 3925 3927 1
2946 3925 3928 1
2947 3929 3930 1
2948 3929 3931 1
2949 3929 3932 1
2950 3933 3934 1
2951 3933 3935 1
2952 3933 3936 1
2953 3937 3938 1
2954 3937 3939 1
2955 3937 3940 1
2956 3941 3942 1
2957 3941 3943 1
2958 3941 3944 1
2959 3945 3946 1
2960 3945 3947 1
2961 3945 3948 1
2962 3949 3950 1
2963 3949 3951 1
2964 3949 3952 1
2965 3953 3954 1
2966 3953 3955 1
2967 3953 3956 1
2968 3957 3958 1
2969 3957 3959 1
2970 3957 3960 1
2971 3961 3962 1
2972 3961 3963 1
2973 3961 3964 1
2974 3965 3966 1
2975 3965 3967 1
2976 3965 3968 1
2977 3969 3970 1
2978 3969 3971 1
2979 3969 3972 1
2980 3973 3974 1
2981 3973 3975 1
2982 3973 3976 1
2983 3977 3978 1
2984 3977 3979 1
2985 3977 3980 1
2986 3981 3982 1
2987 3981 3983 1
2988 3981 3984 1
2989 3985 3986 1
2990 3985 3987 1
2991 3985 3988 1
2992 3989 3990 1
2993 3989 3991 1
2994 3989 3992 1
2995 3993 3994 1
2996 3993 3995 1
2997 3993 3996 1
2998 3997 3998 1
2999 3997 3999 1
3000 3997 4000 1
3001 4001 4002 1
3002 4001 4003 1
3003 4001 4004 1
3004 4005 4006 1
3005 4005 4007 1
3006 4005 4008 1
3007 4009 4010 1
3008 4009 4011 1
3009 4009 4012 1
3010 4013 4014 1
3011 4013 4015 1
3012 4013 4016 1
3013 4017 4018 1
3014 4017 4019 1
3015 4017 4020 1
3016 4021 4022 1
3017 4021 4023 1
3018 4021 4024 1
3019 4025 4026 1
3020 4025 4027 1
3021 4025 4028 1
3022 4029 4030 1
3023 4029 4031 1
3024 4029 4032 1
3025 4033 4034 1
3026 4033 4035 1
3027 4033 4036 1
3028 4037 4038 1
3029 4037 4039 1
3030 4037 4040 1
3031 4041 4042 1
3032 4041 4043 1
3033 4041 4044 1
3034 4045 4046 1
3035 4045 4047 1
3036 4045 4048 1
3037 4049 4050 1
3038 4049 4051 1
3039 4049 4052 1
3040 4053 4054 1
3041 4053 4055 1
3042 4053 4056 1
3043 4057 4058 1
3044 4057 4059 1
3045 4057 4060 1
3046 4061 4062 1
3047 4061 4063 1
3048 4061 4064 1
3049 4065 4066 1
3050 4065 4067 1
3051 4065 4068 1
3052 4069 4070 1
3053 4069 4071 1
3054 4069 4072 1
3055 4073 4074 1
3056 4073 4075 1
3057 4073 4076 1
3058 4077 4078 1
3059 4077 4079 1
3060 4077 4080 1
3061 4081 4082 1
3062 4081 4083 1
3063 4081 4084 1
3064 4085 4086 1
3065 4085 4087 1
3066 4085 4088 1
3067 4089 4090 1
3068 4089 4091 1
3069 4089 4092 1
3070 4093 4094 1
3071 4093 4095 1
3072 4093 4096 1
3073 4097 4098 1
3074 4097 4099 1
3075 4097 4100 1
3076 4101 4102 1
3077 4101 4103 1
3078 4101 4104 1
3079 4105 4106 1
3080 4105 4107 1
3081 4105 4108 1
3082 4109 4110 1
3083 4109 4111 1
3084 4109 4112 1
3085 4113 4114 1
3086 4113 4115 1
3087 4113 4116 1
3088 4117 4118 1
3089 4117 4119 1
3090 4117 4120 1
3091 4121 4122 1
3092 4121 4123 1
3093 4121 4124 1
3094 4125 4126 1
3095 4125 4127 1
3096 4125 4128 1
3097 4129 4130 1
3098 4129 4131 1
3099 4129 4132 1
3100 4133 4134 1
3101 4133 4135 1
3102 4133 4136 1
3103 4137 4138 1
3104 4137 4139 1
3105 4137 4140 1
3106 4141 4142 1
3107 4141 4143 1
3108 4141 4144 1
3109 4145 4146 1
3110 4145 4147 1
3111 4145 4148 1
3112 4149 4150 1
3113 4149 4151 1
3114 4149 4152 1
3115 4153 4154 1
3116 4153 4155 1
3117 4153 4156 1
3118 4157 4158 1
3119 4157 4159 1
3120 4157 4160 1
3121 4161 4162 1
3122 4161 4163 1
3123 4161 4164 1
3124 4165 4166 1
3125 4165 4167 1
3126 4165 4168 1
3127 4169 4170 1
3128 4169 4171 1
3129 4169 4172 1
3130 4173 4174 1
3131 4173 4175 1
3132 4173 4176 1
3133 4177 4178 1
3134 4177 4179 1
3135 4177 4180 1
3136 4181 4182 1
3137 4181 4183 1
3138 4181 4184 1
3139 4185 4186 1
3140 4185 4187 1
3141 4185 4188 1
3142 4189 4191 1
3143 4189 4192 1
3144 4189 4190 1
3145 4193 4194 1
3146 4193 4195 1
3147 4193 4196 1
3148 4197 4198 1
3149 4197 4199 1
3150 4197 4200 1
3151 4201 4202 1
3152 4201 4203 1
3153 4201 4204 1
3154 4205 4206 1
3155 4205 4207 1
3156 4205 4208 1
3157 4209 4210 1
3158 4209 4211 1
3159 4209 4212 1
3160 4213 4214 1
3161 4213 4215 1
3162 4213 4216 1
3163 4217 4218 1
3164 4217 4219 1
3165 4217 4220 1
3166 4221 4222 1
3167 4221 4223 1
3168 4221 4224 1
3169 4225 4226 1
3170 4225 4227 1
3171 4225 4228 1
3172 4229 4230 1
3173 4229 4231 1
3174 4229 4232 1
3175 4233 4234 1
3176 4233 4235 1
3177 4233 4236 1
3178 4237 4238 1
3179 4237 4239 1
3180 4237 4240 1
3181 4241 4242 1
3182 4241 4243 1
3183 4241 4244 1
3184 4245 4246 1
3185 4245 4247 1
3186 4245 4248 1
3187 4249 4250 1
3188 4249 4251 1
3189 4249 4252 1
3190 4253 4254 1
3191 4253 4255 1
3192 4253 4256 1
3193 4257 4258 1
3194 4257 4259 1
3195 4257 4260 1
3196 4261 4262 1
3197 4261 4263 1
3198 4261 4264 1
3199 4265 4266 1
3200 4265 4267 1
3201 4265 4268 1
3202 4269 4270 1
3203 4269 4271 1
3204 4269 4272 1
3205 4273 4274 1
3206 4273 4275 1
3207 4273 4276 1
3208 4277 4278 1
3209 4277 4279 1
3210 4277 4280 1
3211 4281 4282 1
3212 4281 4283 1
3213 4281 4284 1
3214 4285 4286 1
3215 4285 4287 1
3216 4285 4288 1
3217 4289 4290 1
3218 4289 4291 1
3219 4289 4292 1
3220 4293 4294 1
3221 4293 4295 1
3222 4293 4296 1
3223 4297 4298 1
3224 4297 4299 1
3225 4297 4300 1
3226 4301 4302 1
3227 4301 4303 1
3228 4301 4304 1
3229 4305 4306 1
3230 4305 4307 1
3231 4305 4308 1
3232 4309 4310 1
3233 4309 4311 1
3234 4309 4312 1
3235 4313 4314 1
3236 4313 4315 1
3237 4313 4316 1
3238 4317 4318 1
3239 4317 4319 1
3240 4317 4320 1
3241 4321 4322 1
3242 4321 4323 1
3243 4321 4324 1
3244 4325 4326 1
3245 4325 4327 1
3246 4325 4328 1
3247 4329 4330 1
3248 4329 4331 1
3249 4329 4332 1
3250 4333 4334 1
3251 4333 4335 1
3252 4333 4336 1
3253 4337 4338 1
3254 4337 4339 1
3255 4337 4340 1
3256 4341 4342 1
3257 4341 4343 1
3258 4341 4344 1
3259 4345 4346 1
3260 4345 4347 1
3261 4345 4348 1
3262 4349 4350 1
3263 4349 4351 1
3264 4349 4352 1
3265 4353 4354 1
3266 4353 4355 1
3267 4353 4356 1
3268 4357 4358 1
3269 4357 4359 1
3270 4357 4360 1
3271 4361 4362 1
3272 4361 4363 1
3273 4361 4364 1
3274 4365 4366 1
3275 4365 4367 1
3276 4365 4368 1
3277 4369 4371 1
3278 4369 4370 1
3279 4369 4372 1
3280 4373 4374 1
3281 4373 4375 1
3282 4373 4376 1
3283 4377 4380 1
3284 4377 4378 1
3285 4377 4379 1
3286 4381 4382 1
3287 4381 4383 1
3288 4381 4384 1
3289 4385 4386 1
3290 4385 4387 1
3291 4385 4388 1
3292 4389 4390 1
3293 4389 4391 1
3294 4389 4392 1
3295 4393 4394 1
3296 4393 4395 1
3297 4393 4396 1
3298 4397 4398 1
3299 4397 4399 1
3300 4397 4400 1
3301 4401 4402 1
3302 4401 4403 1
3303 4401 4404 1
3304 4405 4406 1
3305 4405 4408 1
3306 4405 4407 1
3307 4409 4410 1
3308 4409 4411 1
3309 4409 4412 1
3310 4413 4414 1
3311 4413 4415 1
3312 4413 4416 1
3313 4417 4418 1
3314 4417 4419 1
3315 4417 4420 1
3316 4421 4422 1
3317 4421 4423 1
3318 4421 4424 1
3319 4425 4426 1
3320 4425 4427 1
3321 4425 4428 1
3322 4429 4430 1
3323 4429 4431 1
3324 4429 4432 1
3325 4433 4434 1
3326 4433 4435 1
3327 4433 4436 1
3328 4437 4438 1
3329 4437 4439 1
3330 4437 4440 1
3331 4441 4443 1
3332 4441 4444 1
3333 4441 4442 1
3334 4445 4446 1
3335 4445 4447 1
3336 4445 4448 1
3337 4449 4450 1
3338 4449 4451 1
3339 4449 4452 1
3340 4453 4454 1
3341 4453 4455 1
3342 4453 4456 1
3343 4457 4458 1
3344 4457 4459 1
3345 4457 4460 1
3346 4461 4462 1
3347 4461 4463 1
3348 4461 4464 1
3349 4465 4466 1
3350 4465 4467 1
3351 4465 4468 1
3352 4469 4470 1
3353 4469 4471 1
3354 4469 4472 1
3355 4473 4474 1
3356 4473 4475 1
3357 4473 4476 1
3358 4477 4478 1
3359 4477 4479 1
3360 4477 4480 1
3361 4481 4482 1
3362 4481 4483 1
3363 4481 4484 1
3364 4485 4486 1
3365 4485 4487 1
3366 4485 4488 1
3367 4489 4490 1
3368 4489 4491 1
3369 4489 4492 1
3370 4493 4494 1
3371 4493 4495 1
3372 4493 4496 1
3373 4497 4498 1
3374 4497 4499 1
3375 4497 4500 1
3376 4501 4502 1
3377 4501 4503 1
3378 4501 4504 1
3379 4505 4506 1
3380 4505 4507 1
3381 4505 4508 1
3382 4509 4510 1
3383 4509 4511 1
3384 4509 4512 1
3385 4513 4514 1
3386 4513 4515 1
3387 4513 4516 1
3388 4517 4518 1
3389 4517 4519 1
3390 4517 4520 1
3391 4521 4522 1
3392 4521 4523 1
3393 4521 4524 1
3394 4525 4526 1
3395 4525 4527 1
3396 4525 4528 1
3397 4529 4530 1
3398 4529 4531 1
3399 4529 4532 1
3400 4533 4534 1
3401 4533 4535 1
3402 4533 4536 1
3403 4537 4538 1
3404 4537 4539 1
3405 4537 4540 1
3406 4541 4542 1
3407 4541 4543 1
3408 4541 4544 1
3409 4545 4546 1
3410 4545 4547 1
3411 4545 4548 1
3412 4549 4550 1
3413 4549 4551 1
3414 4549 4552 1
3415 4553 4555 1
3416 4553 4554 1
3417 4553 4556 1
3418 4557 4558 1
3419 4557 4559 1
3420 4557 4560 1
3421 4561 4562 1
3422 4561 4563 1
3423 4561 4564 1
3424 4565 4566 1
3425 4565 4567 1
3426 4565 4568 1
3427 4569 4570 1
3428 4569 4571 1
3429 4569 4572 1
3430 4573 4574 1
3431 4573 4575 1
3432 4573 4576 1
3433 4577 4578 1
3434 4577 4579 1
3435 4577 4580 1
3436 4581 4582 1
3437 4581 4583 1
3438 4581 4584 1
3439 4585 4586 1
3440 4585 4587 1
3441 4585 4588 1
3442 4589 4590 1
3443 4589 4591 1
3444 4589 4592 1
3445 4593 4594 1
3446 4593 4595 1
3447 4593 4596 1
3448 4597 4598 1
3449 4597 4599 1
3450 4597 4600 1
3451 4601 4602 1
3452 4601 4603 1
3453 4601 4604 1
3454 4605 4606 1
3455 4605 4607 1
3456 4605 4608 1
3457 4609 4610 1
3458 4609 4611 1
3459 4609 4612 1
3460 4613 4614 1
3461 4613 4615 1
3462 4613 4616 1
3463 4617 4618 1
3464 4617 4619 1
3465 4617 4620 1
3466 4621 4622 1
3467 4621 4623 1
3468 4621 4624 1
3469 4625 4626 1
3470 4625 4627 1
3471 4625 4628 1
3472 4629 4630 1
3473 4629 4631 1
3474 4629 4632 1
3475 4633 4634 1
3476 4633 4635 1
3477 4633 4636 1
3478 4637 4638 1
3479 4637 4639 1
3480 4637 4640 1
3481 4641 4642 1
3482 4641 4643 1
3483 4641 4644 1
3484 4645 4646 1
3485 4645 4647 1
3486 4645 4648 1
3487 4649 4650 1
3488 4649 4651 1
3489 4649 4652 1
3490 4653 4654 1
3491 4653 4655 1
3492 4653 4656 1
3493 4657 4658 1
3494 4657 4659 1
3495 4657 4660 1
3496 4661 4662 1
3497 4661 4663 1
3498 4661 4664 1
3499 4665 4666 1
3500 4665 4667 1
3501 4665 4668 1
3502 4669 4670 1
3503 4669 4671 1
3504 4669 4672 1
3505 4673 4674 1
3506 4673 4675 1
3507 4673 4676 1
3508 4677 4678 1
3509 4677 4679 1
3510 4677 4680 1
3511 4681 4682 1
3512 4681 4683 1
3513 4681 4684 1
3514 4685 4686 1
3515 4685 4687 1
3516 4685 4688 1
3517 4689 4690 1
3518 4689 4691 1
3519 4689 4692 1
3520 4693 4695 1
3521 4693 4696 1
3522 4693 4694 1
3523 4697 4698 1
3524 4697 4699 1
3525 4697 4700 1
3526 4701 4702 1
3527 4701 4703 1
3528 4701 4704 1
3529 4705 4706 1
3530 4705 4707 1
3531 4705 4708 1
3532 4709 4710 1
3533 4709 4711 1
3534 4709 4712 1
3535 4713 4714 1
3536 4713 4715 1
3537 4713 4716 1
3538 4717 4718 1
3539 4717 4719 1
3540 4717 4720 1
3541 4721 4722 1
3542 4721 4723 1
3543 4721 4724 1
3544 4725 4726 1
3545 4725 4727 1
3546 4725 4728 1
3547 4729 4730 1
3548 4729 4731 1
3549 4729 4732 1
3550 4733 4734 1
3551 4733 4735 1
3552 4733 4736 1
3553 4737 4738 1
3554 4737 4739 1
3555 4737 4740 1
3556 4741 4742 1
3557 4741 4743 1
3558 4741 4744 1
3559 4745 4746 1
3560 4745 4747 1
3561 4745 4748 1
3562 4749 4750 1
3563 4749 4751 1
3564 4749 4752 1
3565 4753 4754 1
3566 4753 4755 1
3567 4753 4756 1
3568 4757 4758 1
3569 4757 4759 1
3570 4757 4760 1
3571 4761 4762 1
3572 4761 4763 1
3573 4761 4764 1
3574 4765 4766 1
3575 4765 4767 1
3576 4765 4768 1
3577 4769 4770 1
3578 4769 4771 1
3579 4769 4772 1
3580 4773 4774 1
3581 4773 4775 1
3582 4773 4776 1
3583 4777 4778 1
3584 4777 4779 1
3585 4777 4780 1
3586 4781 4784 1
3587 4781 4782 1
3588 4781 4783 1
3589 4785 4786 1
3590 4785 4787 1
3591 4785 4788 1
3592 4789 4790 1
3593 4789 4791 1
3594 4789 4792 1
3595 4793 4794 1
3596 4793 4795 1
3597 4793 4796 1
3598 4797 4798 1
3599 4797 4799 1
3600 4797 4800 1
3601 4801 4802 1
3602 4801 4803 1
3603 4801 4804 1
3604 4805 4806 1
3605 4805 4807 1
3606 4805 4808 1
3607 4809 4810 1
3608 4809 4811 1
3609 4809 4812 1
3610 4813 4814 1
3611 4813 4815 1
3612 4813 4816 1
3613 4817 4818 1
3614 4817 4819 1
3615 4817 4820 1
3616 4821 4822 1
3617 4821 4823 1
3618 4821 4824 1
3619 4825 4826 1
3620 4825 4827 1
3621 4825 4828 1
3622 4829 4830 1
3623 4829 4831 1
3624 4829 4832 1
3625 4833 4834 1
3626 4833 4835 1
3627 4833 4836 1
3628 4837 4838 1
3629 4837 4839 1
3630 4837 4840 1
3631 4841 4842 1
3632 4841 4843 1
3633 4841 4844 1
3634 4845 4846 1
3635 4845 4847 1
3636 4845 4848 1
3637 4849 4850 1
3638 4849 4851 1
3639 4849 4852 1
3640 4853 4854 1
3641 4853 4855 1
3642 4853 4856 1
3643 4857 4858 1
3644 4857 4859 1
3645 4857 4860 1
3646 4861 4862 1
3647 4861 4863 1
3648 4861 4864 1
3649 4865 4866 1
3650 4865 4867 1
3651 4865 4868 1
3652 4869 4870 1
3653 4869 4871 1
3654 4869 4872 1
3655 4873 4874 1
3656 4873 4875 1
3657 4873 4876 1
3658 4877 4878 1
3659 4877 4879 1
3660 4877 4880 1
3661 4881 4884 1
3662 4881 4882 1
3663 4881 4883 1
3664 4885 4886 1
3665 4885 4887 1
3666 4885 4888 1
3667 4889 4890 1
3668 4889 4891 1
3669 4889 4892 1
3670 4893 4894 1
3671 4893 4895 1
3672 4893 4896 1
3673 4897 4898 1
3674 4897 4899 1
3675 4897 4900 1
3676 4901 4902 1
3677 4901 4903 1
3678 4901 4904 1
3679 4905 4906 1
3680 4905 4907 1
3681 4905 4908 1
3682 4909 4910 1
3683 4909 4911 1
3684 4909 4912 1
3685 4913 4914 1
3686 4913 4915 1
3687 4913 4916 1
3688 4917 4918 1
3689 4917 4919 1
3690 4917 4920 1
3691 4921 4922 1
3692 4921 4923 1
3693 4921 4924 1
3694 4925 4926 1
3695 4925 4927 1
3696 4925 4928 1
3697 4929 4930 1
3698 4929 4931 1
3699 4929 4932 1
3700 4933 4934 1
3701 4933 4935 1
3702 4933 4936 1
3703 4937 4938 1
3704 4937 4939 1
3705 4937 4940 1
3706 4941 4942 1
3707 4941 4943 1
3708 4941 4944 1
3709 4945 4947 1
3710 4945 4948 1
3711 4945 4946 1
3712 4949 4950 1
3713 4949 4951 1
3714 4949 4952 1
3715 4953 4954 1
3716 4953 4955 1
3717 4953 4956 1
3718 4957 4958 1
3719 4957 4959 1
3720 4957 4960 1
3721 4961 4962 1
3722 4961 4963 1
3723 4961 4964 1
3724 4965 4966 1
3725 4965 4967 1
3726 4965 4968 1
3727 4969 4970 1
3728 4969 4971 1
3729 4969 4972 1
3730 4973 4974 1
3731 4973 4975 1
3732 4973 4976 1
3733 4977 4978 1
3734 4977 4979 1
3735 4977 4980 1
3736 4981 4982 1
3737 4981 4983 1
3738 4981 4984 1
3739 4985 4986 1
3740 4985 4987 1
3741 4985 4988 1
3742 4989 4990 1
3743 4989 4991 1
3744 4989 4992 1
3745 4993 4994 1
3746 4993 4995 1
3747 4993 4996 1
3748 4997 4998 1
3749 4997 4999 1
3750 4997 5000 1
3751 5001 5002 1
3752 5001 5003 1
3753 5001 5004 1
3754 5005 5006 1
3755 5005 5007 1
3756 5005 5008 1
3757 5009 5010 1
3758 5009 5011 1
3759 5009 5012 1
3760 5013 5014 1
3761 5013 5015 1
3762 5013 5016 1
3763 5017 5018 1
3764 5017 5019 1
3765 5017 5020 1
3766 5021 5022 1
3767 5021 5023 1
3768 5021 5024 1
3769 5025 5026 1
3770 5025 5027 1
3771 5025 5028 1
3772 5029 5030 1
3773 5029 5031 1
3774 5029 5032 1
3775 5033 5034 1
3776 5033 5035 1
3777 5033 5036 1
3778 5037 5038 1
3779 5037 5039 1
3780 5037 5040 1
3781 5041 5042 1
3782 5041 5043 1
3783 5041 5044 1
3784 5045 5046 1
3785 5045 5047 1
3786 5045 5048 1
3787 5049 5050 1
3788 5049 5051 1
3789 5049 5052 1
3790 5053 5054 1
3791 5053 5055 1
3792 5053 5056 1
3793 5057 5058 1
3794 5057 5059 1
3795 5057 5060 1
3796 5061 5062 1
3797 5061 5063 1
3798 5061 5064 1
3799 5065 5066 1
3800 5065 5067 1
3801 5065 5068 1
3802 5069 5070 1
3803 5069 5071 1
3804 5069 5072 1
3805 5073 5074 1
3806 5073 5075 1
3807 5073 5076 1
3808 5077 5078 1
3809 5077 5079 1
3810 5077 5080 1
3811 5081 5082 1
3812 5081 5083 1
3813 5081 5084 1
3814 5085 5086 1
3815 5085 5087 1
3816 5085 5088 1
3817 5089 5090 1
3818 5089 5091 1
3819 5089 5092 1
3820 5093 5094 1
3821 5093 5095 1
3822 5093 5096 1
3823 5097 5098 1
3824 5097 5099 1
3825 5097 5100 1
3826 5101 5102 1
3827 5101 5103 1
3828 5101 5104 1
3829 5105 5106 1
3830 5105 5107 1
3831 5105 5108 1
3832 5109 5110 1
3833 5109 5111 1
3834 5109 5112 1
3835 5113 5114 1
3836 5113 5115 1
3837 5113 5116 1
3838 5117 5118 1
3839 5117 5119 1
3840 5117 5120 1
3841 5121 5122 1
3842 5121 5123 1
3843 5121 5124 1
3844 5125 5126 1
3845 5125 5127 1
3846 5125 5128 1
3847 5129 5130 1
3848 5129 5131 1
3849 5129 5132 1
3850 5133 5134 1
3851 5133 5135 1
3852 5133 5136 1
3853 5137 5138 1
3854 5137 5139 1
3855 5137 5140 1
3856 5141 5142 1
3857 5141 5143 1
3858 5141 5144 1
3859 5145 5146 1
3860 5145 5147 1
3861 5145 5148 1
3862 5149 5150 1
3863 5149 5151 1
3864 5149 5152 1
3865 5153 5154 1
3866 5153 5155 1
3867 5153 5156 1
3868 5157 5158 1
3869 5157 5159 1
3870 5157 5160 1
3871 5161 5162 1
3872 5161 5163 1
3873 5161 5164 1
3874 5165 5166 1
3875 5165 5167 1
3876 5165 5168 1
3877 5169 5170 1
3878 5169 5171 1
3879 5169 5172 1
3880 5173 5174 1
3881 5173 5175 1
3882 5173 5176 1
3883 5177 5178 1
3884 5177 5179 1
3885 5177 5180 1
3886 5181 5182 1
3887 5181 5183 1
3888 5181 5184 1
3889 5185 5186 1
3890 5185 5187 1
3891 5185 5188 1
3892 5189 5190 1
3893 5189 5191 1
3894 5189 5192 1
3895 5193 5194 1
3896 5193 5195 1
3897 5193 5196 1
3898 5197 5199 1
3899 5197 5200 1
3900 5197 5198 1
3901 5201 5202 1
3902 5201 5203 1
3903 5201 5204 1
3904 5205 5206 1
3905 5205 5207 1
3906 5205 5208 1
3907 5209 5210 1
3908 5209 5211 1
3909 5209 5212 1
3910 5213 5214 1
3911 5213 5215 1
3912 5213 5216 1
3913 5217 5218 1
3914 5217 5219 1
3915 5217 5220 1
3916 5221 5222 1
3917 5221 5223 1
3918 5221 5224 1
3919 5225 5226 1
3920 5225 5227 1
3921 5225 5228 1
3922 5229 5230 1
3923 5229 5231 1
3924 5229 5232 1
3925 5233 5234 1
3926 5233 5235 1
3927 5233 5236 1
3928 5237 5238 1
3929 5237 5239 1
3930 5237 5240 1
3931 5241 5242 1
3932 5241 5243 1
3933 5241 5244 1
3934 5245 5246 1
3935 5245 5247 1
3936 5245 5248 1
3937 5249 5250 1
3938 5249 5251 1
3939 5249 5252 1
3940 5253 5254 1
3941 5253 5255 1
3942 5253 5256 1
3943 5257 5258 1
3944 5257 5259 1
3945 5257 5260 1
3946 5261 5262 1
3947 5261 5263 1
3948 5261 5264 1
3949 5265 5266 1
3950 5265 5267 1
3951 5265 5268 1
3952 5269 5270 1
3953 5269 5271 1
3954 5269 5272 1
3955 5273 5274 1
3956 5273 5275 1
3957 5273 5276 1
3958 5277 5278 1
3959 5277 5279 1
3960 5277 5280 1
3961 5281 5282 1
3962 5281 5283 1
3963 5281 5284 1
3964 5285 5286 1
3965 5285 5287 1
3966 5285 5288 1
3967 5289 5290 1
3968 5289 5291 1
3969 5289 5292 1
3970 5293 5294 1
3971 5293 5295 1
3972 5293 5296 1
3973 5297 5298 1
3974 5297 5299 1
3975 5297 5300 1
3976 5301 5302 1
3977 5301 5303 1
3978 5301 5304 1
3979 5305 5306 1
3980 5305 5307 1
3981 5305 5308 1
3982 5309 5310 1
3983 5309 5311 1
3984 5309 5312 1
3985 5313 5314 1
3986 5313 5315 1
3987 5313 5316 1
3988 5317 5318 1
3989 5317 5319 1
3990 5317 5320 1
3991 5321 5322 1
3992 5321 5323 1
3993 5321 5324 1
3994 5325 5326 1
3995 5325 5327 1
3996 5325 5328 1
3997 5329 5330 1
3998 5329 5331 1
3999 5329 5332 1
4000 5333 5334 1
4001 5333 5335 1
4002 5333 5336 1
4003 5337 5338 1
4004 5337 5339 1
4005 5337 5340 1
4006 5341 5342 1
4007 5341 5343 1
4008 5341 5344 1
4009 5345 5346 1
4010 5345 5347 1
4011 5345 5348 1
4012 5349 5350 1
4013 5349 5351 1
4014 5349 5352 1
4015 5353 5354 1
4016 5353 5355 1
4017 5353 5356 1
4018 5357 5358 1
4019 5357 5359 1
4020 5357 5360 1
4021 5361 5362 1
4022 5361 5363 1
4023 5361 5364 1
4024 5365 5366 1
4025 5365 5367 1
4026 5365 5368 1
4027 5369 5370 1
4028 5369 5371 1
4029 5369 5372 1
4030 5373 5374 1
4031 5373 5375 1
4032 5373 5376 1
4033 5377 5378 1
4034 5377 5379 1
4035 5377 5380 1
4036 5381 5382 1
4037 5381 5383 1
4038 5381 5384 1
4039 5385 5388 1
4040 5385 5386 1
4041 5385 5387 1
4042 5389 5390 1
4043 5389 5391 1
4044 5389 5392 1
4045 5393 5394 1
4046 5393 5395 1
4047 5393 5396 1
4048 5397 5398 1
4049 5397 5399 1
4050 5397 5400 1
4051 5401 5402 1
4052 5401 5403 1
4053 5401 5404 1
4054 5405 5406 1
4055 5405 5407 1
4056 5405 5408 1
4057 5409 5410 1
4058 5409 5411 1
4059 5409 5412 1
4060 5413 5414 1
4061 5413 5415 1
4062 5413 5416 1
4063 5417 5418 1
4064 5417 5419 1
4065 5417 5420 1
4066 5421 5422 1
4067 5421 5423 1
4068 5421 5424 1
4069 5425 5426 1
4070 5425 5427 1
4071 5425 5428 1
4072 5429 5430 1
4073 5429 5431 1
4074 5429 5432 1
4075 5433 5434 1
4076 5433 5435 1
4077 5433 5436 1
4078 5437 5438 1
4079 5437 5439 1
4080 5437 5440 1
4081 5441 5442 1
4082 5441 5443 1
4083 5441 5444 1
4084 5445 5446 1
4085 5445 5447 1
4086 5445 5448 1
4087 5449 5451 1
4088 5449 5452 1
4089 5449 5450 1
4090 5453 5454 1
4091 5453 5455 1
4092 5453 5456 1
4093 5457 5458 1
4094 5457 5459 1
4095 5457 5460 1
4096 5461 5462 1
4097 5461 5463 1
4098 5461 5464 1
4099 5465 5466 1
4100 5465 5467 1
4101 5465 5468 1
4102 5469 5470 1
4103 5469 5471 1
4104 5469 5472 1
4105 5473 5474 1
4106 5473 5475 1
4107 5473 5476 1
4108 5477 5478 1
4109 5477 5479 1
4110 5477 5480 1
4111 5481 5482 1
4112 5481 5483 1
4113 5481 5484 1
4114 5485 5486 1
4115 5485 5487 1
4116 5485 5488 1
4117 5489 5490 1
4118 5489 5491 1
4119 5489 5492 1
4120 5493 5494 1
4121 5493 5495 1
4122 5493 5496 1
4123 5497 5498 1
4124 5497 5499 1
4125 5497 5500 1
4126 5501 5502 1
4127 5501 5503 1
4128 5501 5504 1
4129 5505 5506 1
4130 5505 5507 1
4131 5505 5508 1
4132 5509 5510 1
4133 5509 5511 1
4134 5509 5512 1
4135 5513 5514 1
4136 5513 5515 1
4137 5513 5516 1
4138 5517 5518 1
4139 5517 5519 1
4140 5517 5520 1
4141 5521 5522 1
4142 5521 5523 1
4143 5521 5524 1
4144 5525 5526 1
4145 5525 5527 1
4146 5525 5528 1
4147 5529 5530 1
4148 5529 5531 1
4149 5529 5532 1
4150 5533 5534 1
4151 5533 5535 1
4152 5533 5536 1
4153 5537 5538 1
4154 5537 5539 1
4155 5537 5540 1
4156 5541 5542 1
4157 5541 5543 1
4158 5541 5544 1
4159 5545 5546 1
4160 5545 5547 1
4161 5545 5548 1
4162 5549 5550 1
4163 5549 5551 1
4164 5549 5552 1
4165 5553 5554 1
4166 5553 5555 1
4167 5553 5556 1
4168 5557 5558 1
4169 5557 5559 1
4170 5557 5560 1
4171 5561 5562 1
4172 5561 5563 1
4173 5561 5564 1
4174 5565 5566 1
4175 5565 5567 1
4176 5565 5568 1
4177 5569 5570 1
4178 5569 5571 1
4179 5569 5572 1
4180 5573 5575 1
4181 5573 5576 1
4182 5573 5574 1
4183 5577 5578 1
4184 5577 5579 1
4185 5577 5580 1
4186 5581 5582 1
4187 5581 5584 1
4188 5581 5583 1
4189 5585 5586 1
4190 5585 5587 1
4191 5585 5588 1
4192 5589 5590 1
4193 5589 5591 1
4194 5589 5592 1
4195 5593 5594 1
4196 5593 5595 1
4197 5593 5596 1
4198 5597 5598 1
4199 5597 5599 1
4200 5597 5600 1
4201 5601 5603 1
4202 5601 5604 1
4203 5601 5602 1
4204 5605 5606 1
4205 5605 5607 1
4206 5605 5608 1
4207 5609 5610 1
4208 5609 5611 1
4209 5609 5612 1
4210 5613 5614 1
4211 5613 5615 1
4212 5613 5616 1
4213 5617 5618 1
4214 5617 5619 1
4215 5617 5620 1
4216 5621 5622 1
4217 5621 5623 1
4218 5621 5624 1
4219 5625 5626 1
4220 5625 5627 1
4221 5625 5628 1
4222 5629 5630 1
4223 5629 5631 1
4224 5629 5632 1
4225 5633 5634 1
4226 5633 5635 1
4227 5633 5636 1
4228 5637 5639 1
4229 5637 5640 1
4230 5637 5638 1
4231 5641 5642 1
4232 5641 5643 1
4233 5641 5644 1
4234 5645 5646 1
4235 5645 5647 1
4236 5645 5648 1
4237 5649 5650 1
4238 5649 5651 1
4239 5649 5652 1
4240 5653 5654 1
4241 5653 5655 1
4242 5653 5656 1
4243 5657 5658 1
4244 5657 5659 1
4245 5657 5660 1
4246 5661 5662 1
4247 5661 5663 1
4248 5661 5664 1
4249 5665 5666 1
4250 5665 5667 1
4251 5665 5668 1
4252 5669 5670 1
4253 5669 5671 1
4254 5669 5672 1
4255 5673 5674 1
4256 5673 5675 1
4257 5673 5676 1
4258 5677 5678 1
4259 5677 5679 1
4260 5677 5680 1
4261 5681 5682 1
4262 5681 5683 1
4263 5681 5684 1
4264 5685 5686 1
4265 5685 5687 1
4266 5685 5688 1
4267 5689 5690 1
4268 5689 5691 1
4269 5689 5692 1
4270 5693 5694 1
4271 5693 5695 1
4272 5693 5696 1
4273 5697 5698 1
4274 5697 5699 1
4275 5697 5700 1
4276 5701 5703 1
4277 5701 5704 1
4278 5701 5702 1
4279 5705 5706 1
4280 5705 5707 1
4281 5705 5708 1
4282 5709 5710 1
4283 5709 5711 1
4284 5709 5712 1
4285 5713 5714 1
4286 5713 5715 1
4287 5713 5716 1
4288 5717 5718 1
4289 5717 5719 1
4290 5717 5720 1
4291 5721 5722 1
4292 5721 5723 1
4293 5721 5724 1
4294 5725 5726 1
4295 5725 5727 1
4296 5725 5728 1
4297 5729 5730 1
4298 5729 5731 1
4299 5729 5732 1
4300 5733 5734 1
4301 5733 5735 1
4302 5733 5736 1
4303 5737 5738 1
4304 5737 5739 1
4305 5737 5740 1
4306 5741 5742 1
4307 5741 5743 1
4308 5741 5744 1
4309 5745 5746 1
4310 5745 5747 1
4311 5745 5748 1
4312 5749 5750 1
4313 5749 5751 1
4314 5749 5752 1
4315 5753 5754 1
4316 5753 5755 1
4317 5753 5756 1
4318 5757 5758 1
4319 5757 5759 1
4320 5757 5760 1
4321 5761 5762 1
4322 5761 5763 1
4323 5761 5764 1
4324 5765 5766 1
4325 5765 5767 1
4326 5765 5768 1
4327 5769 5770 1
4328 5769 5771 1
4329 5769 5772 1
4330 5773 5774 1
4331 5773 5775 1
4332 5773 5776 1
4333 5777 5778 1
4334 5777 5779 1
4335 5777 5780 1
4336 5781 5782 1
4337 5781 5783 1
4338 5781 5784 1
4339 5785 5786 1
4340 5785 5787 1
4341 5785 5788 1
4342 5789 5790 1
4343 5789 5791 1
4344 5789 5792 1
4345 5793 5794 1
4346 5793 5795 1
4347 5793 5796 1
4348 5797 5798 1
4349 5797 5799 1
4350 5797 5800 1
4351 5801 5802 1
4352 5801 5803 1
4353 5801 5804 1
4354 5805 5806 1
4355 5805 5807 1
4356 5805 5808 1
4357 5809 5810 1
4358 5809 5811 1
4359 5809 5812 1
4360 5813 5814 1
4361 5813 5815 1
4362 5813 5816 1
4363 5817 5818 1
4364 5817 5819 1
4365 5817 5820 1
4366 5821 5822 1
4367 5821 5823 1
4368 5821 5824 1
4369 5825 5826 1
4370 5825 5827 1
4371 5825 5828 1
4372 5829 5830 1
4373 5829 5831 1
4374 5829 5832 1
4375 5833 5834 1
4376 5833 5835 1
4377 5833 5836 1
4378 5837 5838 1
4379 5837 5839 1
4380 5837 5840 1
4381 5841 5842 1
4382 5841 5843 1
4383 5841 5844 1
4384 5845 5846 1
4385 5845 5847 1
4386 5845 5848 1
4387 5849 5850 1
4388 5849 5851 1
4389 5849 5852 1
4390 5853 5854 1
4391 5853 5855 1
4392 5853 5856 1
4393 5857 5858 1
4394 5857 5859 1
4395 5857 5860 1
4396 5861 5862 1
4397 5861 5863 1
4398 5861 5864 1
4399 5865 5866 1
4400 5865 5867 1
4401 5865 5868 1
4402 5869 5870 1
4403 5869 5871 1
4404 5869 5872 1
4405 5873 5874 1
4406 5873 5875 1
4407 5873 5876 1
4408 5877 5878 1
4409 5877 5879 1
4410 5877 5880 1
4411 5881 5882 1
4412 5881 5883 1
4413 5881 5884 1
4414 5885 5886 1
4415 5885 5887 1
4416 5885 5888 1
4417 5889 5892 1
4418 5889 5890 1
4419 5889 5891 1
4420 5893 5894 1
4421 5893 5895 1
4422 5893 5896 1
4423 5897 5898 1
4424 5897 5899 1
4425 5897 5900 1
4426 5901 5902 1
4427 5901 5903 1
4428 5901 5904 1
4429 5905 5906 1
4430 5905 5907 1
4431 5905 5908 1
4432 5909 5910 1
4433 5909 5911 1
4434 5909 5912 1
4435 5913 5914 1
4436 5913 5915 1
4437 5913 5916 1
4438 5917 5918 1
4439 5917 5919 1
4440 5917 5920 1
4441 5921 5922 1
4442 5921 5923 1
4443 5921 5924 1
4444 5925 5926 1
4445 5925 5927 1
4446 5925 5928 1
4447 5929 5930 1
4448 5929 5931 1
4449 5929 5932 1
4450 5933 5934 1
4451 5933 5935 1
4452 5933 5936 1
4453 5937 5940 1
4454 5937 5938 1
4455 5937 5939 1
4456 5941 5942 1
4457 5941 5943 1
4458 5941 5944 1
4459 5945 5946 1
4460 5945 5947 1
4461 5945 5948 1
4462 5949 5950 1
4463 5949 5951 1
4464 5949 5952 1
4465 5953 5955 1
4466 5953 5956 1
4467 5953 5954 1
4468 5957 5958 1
4469 5957 5959 1
4470 5957 5960 1
4471 5961 5962 1
4472 5961 5963 1
4473 5961 5964 1
4474 5965 5966 1
4475 5965 5967 1
4476 5965 5968 1
4477 5969 5970 1
4478 5969 5971 1
4479 5969 5972 1
4480 5973 5974 1
4481 5973 5975 1
4482 5973 5976 1
4483 5977 5978 1
4484 5977 5979 1
4485 5977 5980 1
4486 5981 5982 1
4487 5981 5983 1
4488 5981 5984 1
4489 5985 5986 1
4490 5985 5987 1
4491 5985 5988 1
4492 5989 5990 1
4493 5989 5991 1
4494 5989 5992 1
4495 5993 5994 1
4496 5993 5995 1
4497 5993 5996 1
4498 5997 5998 1
4499 5997 5999 1
4500 5997 6000 1
4501 6001 6002 1
4502 6001 6003 1
4503 6001 6004 1
4504 6005 6006 1
4505 6005 6007 1
4506 6005 6008 1
4507 6009 6010 1
4508 6009 6011 1
4509 6009 6012 1
4510 6013 6014 1
4511 6013 6015 1
4512 6013 6016 1
4513 6017 6018 1
4514 6017 6019 1
4515 6017 6020 1
4516 6021 6022 1
4517 6021 6023 1
4518 6021 6024 1
4519 6025 6026 1
4520 6025 6027 1
4521 6025 6028 1
4522 6029 6030 1
4523 6029 6031 1
4524 6029 6032 1
4525 6033 6034 1
4526 6033 6035 1
4527 6033 6036 1
4528 6037 6038 1
4529 6037 6039 1
4530 6037 6040 1
4531 6041 6042 1
4532 6041 6043 1
4533 6041 6044 1
4534 6045 6046 1
4535 6045 6047 1
4536 6045 6048 1
4537 6049 6050 1
4538 6049 6051 1
4539 6049 6052 1
4540 6053 6054 1
4541 6053 6055 1
4542 6053 6056 1
4543 6057 6058 1
4544 6057 6059 1
4545 6057 6060 1
4546 6061 6062 1
4547 6061 6063 1
4548 6061 6064 1
4549 6065 6066 1
4550 6065 6067 1
4551 6065 6068 1
4552 6069 6070 1
4553 6069 6071 1
4554 6069 6072 1
4555 6073 6074 1
4556 6073 6075 1
4557 6073 6076 1
4558 6077 6078 1
4559 6077 6079 1
4560 6077 6080 1
4561 6081 6082 1
4562 6081 6083 1
4563 6081 6084 1
4564 6085 6086 1
4565 6085 6087 1
4566 6085 6088 1
4567 6089 6090 1
4568 6089 6091 1
4569 6089 6092 1
4570 6093 6094 1
4571 6093 6095 1
4572 6093 6096 1
4573 6097 6098 1
4574 6097 6099 1
4575 6097 6100 1
4576 6101 6102 1
4577 6101 6103 1
4578 6101 6104 1
4579 6105 6106 1
4580 6105 6107 1
4581 6105 6108 1
4582 6109 6110 1
4583 6109 6111 1
4584 6109 6112 1
4585 6113 6114 1
4586 6113 6115 1
4587 6113 6116 1
4588 6117 6118 1
4589 6117 6119 1
4590 6117 6120 1
4591 6121 6122 1
4592 6121 6123 1
4593 6121 6124 1
4594 6125 6126 1
4595 6125 6127 1
4596 6125 6128 1
4597 6129 6130 1
4598 6129 6131 1
4599 6129 6132 1
4600 6133 6134 1
4601 6133 6135 1
4602 6133 6136 1
4603 6137 6138 1
4604 6137 6139 1
4605 6137 6140 1
4606 6141 6142 1
4607 6141 6143 1
4608 6141 6144 1
4609 6145 6146 1
4610 6145 6147 1
4611 6145 6148 1
4612 6149 6150 1
4613 6149 6151 1
4614 6149 6152 1
4615 6153 6154 1
4616 6153 6155 1
4617 6153 6156 1
4618 6157 6158 1
4619 6157 6159 1
4620 6157 6160 1
4621 6161 6162 1
4622 6161 6163 1
4623 6161 6164 1
4624 6165 6166 1
4625 6165 6167 1
4626 6165 6168 1
4627 6169 6170 1
4628 6169 6171 1
4629 6169 6172 1
4630 6173 6174 1
4631 6173 6175 1
4632 6173 6176 1
4633 6177 6178 1
4634 6177 6179 1
4635 6177 6180 1
4636 6181 6182 1
4637 6181 6183 1
4638 6181 6184 1
4639 6185 6186 1
4640 6185 6187 1
4641 6185 6188 1
4642 6189 6190 1
4643 6189 6191 1
4644 6189 6192 1
4645 6193 6194 1
4646 6193 6195 1
4647 6193 6196 1
4648 6197 6198 1
4649 6197 6199 1
4650 6197 6200 1
4651 6201 6202 1
4652 6201 6203 1
4653 6201 6204 1
4654 6205 6207 1
4655 6205 6208 1
4656 6205 6206 1
4657 6209 6210 1
4658 6209 6211 1
4659 6209 6212 1
4660 6213 6214 1
4661 6213 6215 1
4662 6213 6216 1
4663 6217 6218 1
4664 6217 6219 1
4665 6217 6220 1
4666 6221 6222 1
4667 6221 6223 1
4668 6221 6224 1
4669 6225 6226 1
4670 6225 6227 1
4671 6225 6228 1
4672 6229 6230 1
4673 6229 6231 1
4674 6229 6232 1
4675 6233 6234 1
4676 6233 6235 1
4677 6233 6236 1
4678 6237 6238 1
4679 6237 6239 1
4680 6237 6240 1
4681 6241 6242 1
4682 6241 6243 1
4683 6241 6244 1
4684 6245 6246 1
4685 6245 6247 1
4686 6245 6248 1
4687 6249 6250 1
4688 6249 6251 1
4689 6249 6252 1
4690 6253 6254 1
4691 6253 6255 1
4692 6253 6256 1
4693 6257 6258 1
4694 6257 6259 1
4695 6257 6260 1
4696 6261 6262 1
4697 6261 6263 1
4698 6261 6264 1
4699 6265 6266 1
4700 6265 6267 1
4701 6265 6268 1
4702 6269 6270 1
4703 6269 6271 1
4704 6269 6272 1
4705 6273 6274 1
4706 6273 6275 1
4707 6273 6276 1
4708 6277 6278 1
4709 6277 6279 1
4710 6277 6280 1
4711 6281 6282 1
4712 6281 6283 1
4713 6281 6284 1
4714 6285 6286 1
4715 6285 6287 1
4716 6285 6288 1
4717 6289 6290 1
4718 6289 6291 1
4719 6289 6292 1
4720 6293 6294 1
4721 6293 6295 1
4722 6293 6296 1
4723 6297 6298 1
4724 6297 6299 1
4725 6297 6300 1
4726 6301 6302 1
4727 6301 6303 1
4728 6301 6304 1
4729 6305 6306 1
4730 6305 6307 1
4731 6305 6308 1
4732 6309 6310 1
4733 6309 6311 1
4734 6309 6312 1
4735 6313 6314 1
4736 6313 6315 1
4737 6313 6316 1
4738 6317 6318 1
4739 6317 6319 1
4740 6317 6320 1
4741 6321 6322 1
4742 6321 6323 1
4743 6321 6324 1
4744 6325 6326 1
4745 6325 6327 1
4746 6325 6328 1
4747 6329 6330 1
4748 6329 6331 1
4749 6329 6332 1
4750 6333 6334 1
4751 6333 6335 1
4752 6333 6336 1
4753 6337 6338 1
4754 6337 6339 1
4755 6337 6340 1
4756 6341 6342 1
4757 6341 6343 1
4758 6341 6344 1
4759 6345 6346 1
4760 6345 6347 1
4761 6345 6348 1
4762 6349 6350 1
4763 6349 6351 1
4764 6349 6352 1
4765 6353 6354 1
4766 6353 6355 1
4767 6353 6356 1
4768 6357 6358 1
4769 6357 6359 1
4770 6357 6360 1
4771 6361 6362 1
4772 6361 6363 1
4773 6361 6364 1
4774 6365 6366 1
4775 6365 6367 1
4776 6365 6368 1
4777 6369 6370 1
4778 6369 6371 1
4779 6369 6372 1
4780 6373 6374 1
4781 6373 6375 1
4782 6373 6376 1
4783 6377 6378 1
4784 6377 6379 1
4785 6377 6380 1
4786 6381 6382 1
4787 6381 6383 1
4788 6381 6384 1
4789 6385 6386 1
4790 6385 6387 1
4791 6385 6388 1
4792 6389 6390 1
4793 6389 6391 1
4794 6389 6392 1
4795 6393 6396 1
4796 6393 6394 1
4797 6393 6395 1
4798 6397 6398 1
4799 6397 6399 1
4800 6397 6400 1
4801 6401 6402 1
4802 6401 6403 1
4803 6401 6404 1
4804 6405 6406 1
4805 6405 6407 1
4806 6405 6408 1
4807 6409 6410 1
4808 6409 6411 1
4809 6409 6412 1
4810 6413 6414 1
4811 6413 6415 1
4812 6413 6416 1
4813 6417 6418 1
4814 6417 6419 1
4815 6417 6420 1
4816 6421 6422 1
4817 6421 6423 1
4818 6421 6424 1
4819 6425 6426 1
4820 6425 6427 1
4821 6425 6428 1
4822 6429 6430 1
4823 6429 6431 1
4824 6429 6432 1
4825 6433 6434 1
4826 6433 6435 1
4827 6433 6436 1
4828 6437 6438 1
4829 6437 6439 1
4830 6437 6440 1
4831 6441 6442 1
4832 6441 6443 1
4833 6441 6444 1
4834 6445 6446 1
4835 6445 6447 1
4836 6445 6448 1
4837 6449 6450 1
4838 6449 6451 1
4839 6449 6452 1
4840 6453 6454 1
4841 6453 6455 1
4842 6453 6456 1
4843 6457 6459 1
4844 6457 6460 1
4845 6457 6458 1
4846 6461 6462 1
4847 6461 6463 1
4848 6461 6464 1
4849 6465 6466 1
4850 6465 6467 1
4851 6465 6468 1
4852 6469 6470 1
4853 6469 6471 1
4854 6469 6472 1
4855 6473 6474 1
4856 6473 6475 1
4857 6473 6476 1
4858 6477 6478 1
4859 6477 6479 1
4860 6477 6480 1
4861 6481 6482 1
4862 6481 6483 1
4863 6481 6484 1
4864 6485 6486 1
4865 6485 6487 1
4866 6485 6488 1
4867 6489 6490 1
4868 6489 6491 1
4869 6489 6492 1
4870 6493 6494 1
4871 6493 6495 1
4872 6493 6496 1
4873 6497 6498 1
4874 6497 6499 1
4875 6497 6500 1
4876 6501 6502 1
4877 6501 6503 1
4878 6501 6504 1
4879 6505 6506 1
4880 6505 6507 1
4881 6505 6508 1
4882 6509 6510 1
4883 6509 6511 1
4884 6509 6512 1
4885 6513 6514 1
4886 6513 6515 1
4887 6513 6516 1
4888 6517 6518 1
4889 6517 6519 1
4890 6517 6520 1
4891 6521 6522 1
4892 6521 6523 1
4893 6521 6524 1
4894 6525 6526 1
4895 6525 6527 1
4896 6525 6528 1
4897 6529 6530 1
4898 6529 6531 1
4899 6529 6532 1
4900 6533 6534 1
4901 6533 6535 1
4902 6533 6536 1
4903 6537 6538 1
4904 6537 6539 1
4905 6537 6540 1
4906 6541 6542 1
4907 6541 6543 1
4908 6541 6544 1
4909 6545 6546 1
4910 6545 6547 1
4911 6545 6548 1
4912 6549 6550 1
4913 6549 6551 1
4914 6549 6552 1
4915 6553 6554 1
4916 6553 6555 1
4917 6553 6556 1
4918 6557 6558 1
4919 6557 6559 1
4920 6557 6560 1
4921 6561 6562 1
4922 6561 6563 1
4923 6561 6564 1
4924 6565 6566 1
4925 6565 6567 1
4926 6565 6568 1
4927 6569 6570 1
4928 6569 6571 1
4929 6569 6572 1
4930 6573 6574 1
4931 6573 6575 1
4932 6573 6576 1
4933 6577 6578 1
4934 6577 6579 1
4935 6577 6580 1
4936 6581 6582 1
4937 6581 6583 1
4938 6581 6584 1
4939 6585 6586 1
4940 6585 6587 1
4941 6585 6588 1
4942 6589 6590 1
4943 6589 6591 1
4944 6589 6592 1
4945 6593 6594 1
4946 6593 6595 1
4947 6593 6596 1
4948 6597 6598 1
4949 6597 6599 1
4950 6597 6600 1
4951 6601 6602 1
4952 6601 6603 1
4953 6601 6604 1
4954 6605 6606 1
4955 6605 6607 1
4956 6605 6608 1
4957 6609 6610 1
4958 6609 6611 1
4959 6609 6612 1
4960 6613 6614 1
4961 6613 6615 1
4962 6613 6616 1
4963 6617 6618 1
4964 6617 6619 1
4965 6617 6620 1
4966 6621 6622 1
4967 6621 6623 1
4968 6621 6624 1
4969 6625 6626 1
4970 6625 6627 1
4971 6625 6628 1
4972 6629 6630 1
4973 6629 6631 1
4974 6629 6632 1
4975 6633 6634 1
4976 6633 6635 1
4977 6633 6636 1
4978 6637 6638 1
4979 6637 6639 1
4980 6637 6640 1
4981 6641 6642 1
4982 6641 6643 1
4983 6641 6644 1
4984 6645 6646 1
4985 6645 6647 1
4986 6645 6648 1
4987 6649 6650 1
4988 6649 6651 1
4989 6649 6652 1
4990 6653 6654 1
4991 6653 6655 1
4992 6653 6656 1
4993 6657 6658 1
4994 6657 6659 1
4995 6657 6660 1
4996 6661 6662 1
4997 6661 6663 1
4998 6661 6664 1
4999 6665 6666 1
5000 6665 6667 1
5001 6665 6668 1
5002 6669 6670 1
5003 6669 6671 1
5004 6669 6672 1
5005 6673 6674 1
5006 6673 6675 1
5007 6673 6676 1
5008 6677 6678 1
5009 6677 6679 1
5010 6677 6680 1
5011 6681 6682 1
5012 6681 6683 1
5013 6681 6684 1
5014 6685 6686 1
5015 6685 6687 1
5016 6685 6688 1
5017 6689 6690 1
5018 6689 6691 1
5019 6689 6692 1
5020 6693 6694 1
5021 6693 6695 1
5022 6693 6696 1
5023 6697 6698 1
5024 6697 6699 1
5025 6697 6700 1
5026 6701 6702 1
5027 6701 6703 1
5028 6701 6704 1
5029 6705 6706 1
5030 6705 6707 1
5031 6705 6708 1
5032 6709 6710 1
5033 6709 6711 1
5034 6709 6712 1
5035 6713 6714 1
5036 6713 6715 1
5037 6713 6716 1
5038 6717 6718 1
5039 6717 6719 1
5040 6717 6720 1
5041 6721 6722 1
5042 6721 6723 1
5043 6721 6724 1
5044 6725 6726 1
5045 6725 6727 1
5046 6725 6728 1
5047 6729 6730 1
5048 6729 6731 1
5049 6729 6732 1
5050 6733 6734 1
5051 6733 6735 1
5052 6733 6736 1
5053 6737 6738 1
5054 6737 6739 1
5055 6737 6740 1
5056 6741 6742 1
5057 6741 6743 1
5058 6741 6744 1
5059 6745 6746 1
5060 6745 6747 1
5061 6745 6748 1
5062 6749 6750 1
5063 6749 6751 1
5064 6749 6752 1
5065 6753 6754 1
5066 6753 6755 1
5067 6753 6756 1
5068 6757 6758 1
5069 6757 6759 1
5070 6757 6760 1
5071 6761 6762 1
5072 6761 6763 1
5073 6761 6764 1
5074 6765 6766 1
5075 6765 6767 1
5076 6765 6768 1
5077 6769 6770 1
5078 6769 6771 1
5079 6769 6772 1
5080 6773 6774 1
5081 6773 6775 1
5082 6773 6776 1
5083 6777 6778 1
5084 6777 6779 1
5085 6777 6780 1
5086 6781 6782 1
5087 6781 6783 1
5088 6781 6784 1
5089 6785 6786 1
5090 6785 6787 1
5091 6785 6788 1
5092 6789 6790 1
5093 6789 6791 1
5094 6789 6792 1
5095 6793 6794 1
5096 6793 6795 1
5097 6793 6796 1
5098 6797 6798 1
5099 6797 6799 1
5100 6797 6800 1
5101 6801 6802 1
5102 6801 6803 1
5103 6801 6804 1
5104 6805 6806 1
5105 6805 6807 1
5106 6805 6808 1
5107 6809 6810 1
5108 6809 6811 1
5109 6809 6812 1
5110 6813 6814 1
5111 6813 6815 1
5112 6813 6816 1
5113 6817 6818 1
5114 6817 6819 1
5115 6817 6820 1
5116 6821 6822 1
5117 6821 6823 1
5118 6821 6824 1
5119 6825 6826 1
5120 6825 6827 1
5121 6825 6828 1
5122 6829 6830 1
5123 6829 6831 1
5124 6829 6832 1
5125 6833 6834 1
5126 6833 6835 1
5127 6833 6836 1
5128 6837 6838 1
5129 6837 6839 1
5130 6837 6840 1
5131 6841 6842 1
5132 6841 6843 1
5133 6841 6844 1
5134 6845 6846 1
5135 6845 6847 1
5136 6845 6848 1
5137 6849 6850 1
5138 6849 6851 1
5139 6849 6852 1
5140 6853 6854 1
5141 6853 6855 1
5142 6853 6856 1
5143 6857 6858 1
5144 6857 6859 1
5145 6857 6860 1
5146 6861 6862 1
5147 6861 6863 1
5148 6861 6864 1
5149 6865 6867 1
5150 6865 6866 1
5151 6865 6868 1
5152 6869 6870 1
5153 6869 6871 1
5154 6869 6872 1
5155 6873 6874 1
5156 6873 6875 1
5157 6873 6876 1
5158 6877 6878 1
5159 6877 6879 1
5160 6877 6880 1
5161 6881 6882 1
5162 6881 6883 1
5163 6881 6884 1
5164 6885 6886 1
5165 6885 6887 1
5166 6885 6888 1
5167 6889 6890 1
5168 6889 6891 1
5169 6889 6892 1
5170 6893 6894 1
5171 6893 6895 1
5172 6893 6896 1
5173 6897 6900 1
5174 6897 6898 1
5175 6897 6899 1
5176 6901 6902 1
5177 6901 6903 1
5178 6901 6904 1
5179 6905 6906 1
5180 6905 6907 1
5181 6905 6908 1
5182 6909 6910 1
5183 6909 6911 1
5184 6909 6912 1
5185 6913 6914 1
5186 6913 6915 1
5187 6913 6916 1
5188 6917 6918 1
5189 6917 6919 1
5190 6917 6920 1
5191 6921 6922 1
5192 6921 6923 1
5193 6921 6924 1
5194 6925 6926 1
5195 6925 6927 1
5196 6925 6928 1
5197 6929 6930 1
5198 6929 6931 1
5199 6929 6932 1
5200 6933 6934 1
5201 6933 6935 1
5202 6933 6936 1
5203 6937 6938 1
5204 6937 6939 1
5205 6937 6940 1
5206 6941 6942 1
5207 6941 6943 1
5208 6941 6944 1
5209 6945 6946 1
5210 6945 6947 1
5211 6945 6948 1
5212 6949 6950 1
5213 6949 6951 1
5214 6949 6952 1
5215 6953 6956 1
5216 6953 6954 1
5217 6953 6955 1
5218 6957 6958 1
5219 6957 6959 1
5220 6957 6960 1
5221 6961 6963 1
5222 6961 6964 1
5223 6961 6962 1
5224 6965 6966 1
5225 6965 6967 1
5226 6965 6968 1
5227 6969 6970 1
5228 6969 6971 1
5229 6969 6972 1
5230 6973 6974 1
5231 6973 6975 1
5232 6973 6976 1
5233 6977 6978 1
5234 6977 6979 1
5235 6977 6980 1
5236 6981 6982 1
5237 6981 6983 1
5238 6981 6984 1
5239 6985 6986 1
5240 6985 6987 1
5241 6985 6988 1
5242 6989 6990 1
5243 6989 6991 1
5244 6989 6992 1
5245 6993 6994 1
5246 6993 6995 1
5247 6993 6996 1
5248 6997 6998 1
5249 6997 6999 1
5250 6997 7000 1
5251 7001 7002 1
5252 7001 7003 1
5253 7001 7004 1
5254 7005 7006 1
5255 7005 7007 1
5256 7005 7008 1
5257 7009 7010 1
5258 7009 7011 1
5259 7009 7012 1
5260 7013 7014 1
5261 7013 7015 1
5262 7013 7016 1
5263 7017 7018 1
5264 7017 7019 1
5265 7017 7020 1
5266 7021 7022 1
5267 7021 7023 1
5268 7021 7024 1
5269 7025 7026 1
5270 7025 7027 1
5271 7025 7028 1
5272 7029 7030 1
5273 7029 7031 1
5274 7029 7032 1
5275 7033 7034 1
5276 7033 7035 1
5277 7033 7036 1
5278 7037 7038 1
5279 7037 7039 1
5280 7037 7040 1
5281 7041 7042 1
5282 7041 7043 1
5283 7041 7044 1
5284 7045 7046 1
5285 7045 7047 1
5286 7045 7048 1
5287 7049 7050 1
5288 7049 7051 1
5289 7049 7052 1
5290 7053 7054 1
5291 7053 7055 1
5292 7053 7056 1
5293 7057 7058 1
5294 7057 7059 1
5295 7057 7060 1
5296 7061 7062 1
5297 7061 7063 1
5298 7061 7064 1
5299 7065 7066 1
5300 7065 7067 1
5301 7065 7068 1
5302 7069 7070 1
5303 7069 7071 1
5304 7069 7072 1
5305 7073 7074 1
5306 7073 7075 1
5307 7073 7076 1
5308 7077 7078 1
5309 7077 7079 1
5310 7077 7080 1
5311 7081 7082 1
5312 7081 7083 1
5313 7081 7084 1
5314 7085 7086 1
5315 7085 7087 1
5316 7085 7088 1
5317 7089 7090 1
5318 7089 7091 1
5319 7089 7092 1
5320 7093 7094 1
5321 7093 7095 1
5322 7093 7096 1
5323 7097 7098 1
5324 7097 7099 1
5325 7097 7100 1
5326 7101 7102 1
5327 7101 7103 1
5328 7101 7104 1
5329 7105 7106 1
5330 7105 7107 1
5331 7105 7108 1
5332 7109 7110 1
5333 7109 7111 1
5334 7109 7112 1
5335 7113 7114 1
5336 7113 7115 1
5337 7113 7116 1
5338 7117 7118 1
5339 7117 7119 1
5340 7117 7120 1
5341 7121 7122 1
5342 7121 7123 1
5343 7121 7124 1
5344 7125 7126 1
5345 7125 7127 1
5346 7125 7128 1
5347 7129 7130 1
5348 7129 7131 1
5349 7129 7132 1
5350 7133 7134 1
5351 7133 7135 1
5352 7133 7136 1
5353 7137 7138 1
5354 7137 7139 1
5355 7137 7140 1
5356 7141 7142 1
5357 7141 7143 1
5358 7141 7144 1
5359 7145 7146 1
5360 7145 7147 1
5361 7145 7148 1
5362 7149 7150 1
5363 7149 7151 1
5364 7149 7152 1
5365 7153 7154 1
5366 7153 7155 1
5367 7153 7156 1
5368 7157 7158 1
5369 7157 7159 1
5370 7157 7160 1
5371 7161 7162 1
5372 7161 7163 1
5373 7161 7164 1
5374 7165 7166 1
5375 7165 7167 1
5376 7165 7168 1
5377 7169 7170 1
5378 7169 7171 1
5379 7169 7172 1
5380 7173 7174 1
5381 7173 7175 1
5382 7173 7176 1
5383 7177 7178 1
5384 7177 7179 1
5385 7177 7180 1
5386 7181 7182 1
5387 7181 7183 1
5388 7181 7184 1
5389 7185 7186 1
5390 7185 7187 1
5391 7185 7188 1
5392 7189 7190 1
5393 7189 7191 1
5394 7189 7192 1
5395 7193 7194 1
5396 7193 7195 1
5397 7193 7196 1
5398 7197 7198 1
5399 7197 7199 1
5400 7197 7200 1
5401 7201 7202 1
5402 7201 7203 1
5403 7201 7204 1
5404 7205 7206 1
5405 7205 7207 1
5406 7205 7208 1
5407 7209 7210 1
5408 7209 7211 1
5409 7209 7212 1
5410 7213 7215 1
5411 7213 7216 1
5412 7213 7214 1
5413 7217 7218 1
5414 7217 7219 1
5415 7217 7220 1
5416 7221 7222 1
5417 7221 7223 1
5418 7221 7224 1
5419 7225 7226 1
5420 7225 7227 1
5421 7225 7228 1
5422 7229 7230 1
5423 7229 7231 1
5424 7229 7232 1
5425 7233 7234 1
5426 7233 7235 1
5427 7233 7236 1
5428 7237 7238 1
5429 7237 7239 1
5430 7237 7240 1
5431 7241 7242 1
5432 7241 7243 1
5433 7241 7244 1
5434 7245 7246 1
5435 7245 7247 1
5436 7245 7248 1
5437 7249 7250 1
5438 7249 7251 1
5439 7249 7252 1
5440 7253 7254 1
5441 7253 7255 1
5442 7253 7256 1
5443 7257 7258 1
5444 7257 7259 1
5445 7257 7260 1
5446 7261 7262 1
5447 7261 7263 1
5448 7261 7264 1
5449 7265 7266 1
5450 7265 7267 1
5451 7265 7268 1
5452 7269 7270 1
5453 7269 7271 1
5454 7269 7272 1
5455 7273 7274 1
5456 7273 7275 1
5457 7273 7276 1
5458 7277 7278 1
5459 7277 7279 1
5460 7277 7280 1
5461 7281 7282 1
5462 7281 7283 1
5463 7281 7284 1
5464 7285 7286 1
5465 7285 7287 1
5466 7285 7288 1
5467 7289 7290 1
5468 7289 7291 1
5469 7289 7292 1
5470 7293 7294 1
5471 7293 7295 1
5472 7293 7296 1
5473 7297 7298 1
5474 7297 7299 1
5475 7297 7300 1
5476 7301 7302 1
5477 7301 7303 1
5478 7301 7304 1
5479 7305 7306 1
5480 7305 7307 1
5481 7305 7308 1
5482 7309 7310 1
5483 7309 7311 1
5484 7309 7312 1
5485 7313 7314 1
5486 7313 7315 1
5487 7313 7316 1
5488 7317 7318 1
5489 7317 7319 1
5490 7317 7320 1
5491 7321 7322 1
5492 7321 7323 1
5493 7321 7324 1
5494 7325 7326 1
5495 7325 7327 1
5496 7325 7328 1
5497 7329 7330 1
5498 7329 7331 1
5499 7329 7332 1
5500 7333 7334 1
5501 7333 7335 1
5502 7333 7336 1
5503 7337 7338 1
5504 7337 7339 1
5505 7337 7340 1
5506 7341 7342 1
5507 7341 7343 1
5508 7341 7344 1
5509 7345 7346 1
5510 7345 7347 1
5511 7345 7348 1
5512 7349 7350 1
5513 7349 7351 1
5514 7349 7352 1
5515 7353 7354 1
5516 7353 7355 1
5517 7353 7356 1
5518 7357 7358 1
5519 7357 7359 1
5520 7357 7360 1
5521 7361 7362 1
5522 7361 7363 1
5523 7361 7364 1
5524 7365 7366 1
5525 7365 7367 1
5526 7365 7368 1
5527 7369 7370 1
5528 7369 7371 1
5529 7369 7372 1
5530 7373 7374 1
5531 7373 7375 1
5532 7373 7376 1
5533 7377 7378 1
5534 7377 7379 1
5535 7377 7380 1
5536 7381 7382 1
5537 7381 7383 1
5538 7381 7384 1
5539 7385 7386 1
5540 7385 7387 1
5541 7385 7388 1
5542 7389 7390 1
5543 7389 7391 1
5544 7389 7392 1
5545 7393 7394 1
5546 7393 7395 1
5547 7393 7396 1
5548 7397 7398 1
5549 7397 7399 1
5550 7397 7400 1
5551 7401 7404 1
5552 7401 7402 1
5553 7401 7403 1
5554 7405 7406 1
5555 7405 7407 1
5556 7405 7408 1
5557 7409 7410 1
5558 7409 7411 1
5559 7409 7412 1
5560 7413 7414 1
5561 7413 7415 1
5562 7413 7416 1
5563 7417 7418 1
5564 7417 7419 1
5565 7417 7420 1
5566 7421 7422 1
5567 7421 7423 1
5568 7421 7424 1
5569 7425 7426 1
5570 7425 7427 1
5571 7425 7428 1
5572 7429 7430 1
5573 7429 7431 1
5574 7429 7432 1
5575 7433 7434 1
5576 7433 7435 1
5577 7433 7436 1
5578 7437 7438 1
5579 7437 7439 1
5580 7437 7440 1
5581 7441 7442 1
5582 7441 7443 1
5583 7441 7444 1
5584 7445 7446 1
5585 7445 7447 1
5586 7445 7448 1
5587 7449 7450 1
5588 7449 7451 1
5589 7449 7452 1
5590 7453 7454 1
5591 7453 7455 1
5592 7453 7456 1
5593 7457 7458 1
5594 7457 7460 1
5595 7457 7459 1
5596 7461 7462 1
5597 7461 7463 1
5598 7461 7464 1
5599 7465 7467 1
5600 7465 7468 1
5601 7465 7466 1
5602 7469 7470 1
5603 7469 7471 1
5604 7469 7472 1
5605 7473 7474 1
5606 7473 7475 1
5607 7473 7476 1
5608 7477 7478 1
5609 7477 7479 1
5610 7477 7480 1
5611 7481 7482 1
5612 7481 7483 1
5613 7481 7484 1
5614 7485 7486 1
5615 7485 7487 1
5616 7485 7488 1
5617 7489 7490 1
5618 7489 7491 1
5619 7489 7492 1
5620 7493 7494 1
5621 7493 7495 1
5622 7493 7496 1
5623 7497 7498 1
5624 7497 7499 1
5625 7497 7500 1
5626 7501 7502 1
5627 7501 7503 1
5628 7501 7504 1
5629 7505 7506 1
5630 7505 7507 1
5631 7505 7508 1
5632 7509 7510 1
5633 7509 7511 1
5634 7509 7512 1
5635 7513 7514 1
5636 7513 7515 1
5637 7513 7516 1
5638 7517 7518 1
5639 7517 7519 1
5640 7517 7520 1
5641 7521 7522 1
5642 7521 7523 1
5643 7521 7524 1
5644 7525 7526 1
5645 7525 7527 1
5646 7525 7528 1
5647 7529 7530 1
5648 7529 7531 1
5649 7529 7532 1
5650 7533 7534 1
5651 7533 7535 1
5652 7533 7536 1
5653 7537 7538 1
5654 7537 7539 1
5655 7537 7540 1
5656 7541 7542 1
5657 7541 7543 1
5658 7541 7544 1
5659 7545 7546 1
5660 7545 7547 1
5661 7545 7548 1
5662 7549 7550 1
5663 7549 7551 1
5664 7549 7552 1
5665 7553 7554 1
5666 7553 7555 1
5667 7553 7556 1
5668 7557 7558 1
5669 7557 7559 1
5670 7557 7560 1
5671 7561 7562 1
5672 7561 7563 1
5673 7561 7564 1
5674 7565 7566 1
5675 7565 7567 1
5676 7565 7568 1
5677 7569 7570 1
5678 7569 7571 1
5679 7569 7572 1
5680 7573 7574 1
5681 7573 7575 1
5682 7573 7576 1
5683 7577 7578 1
5684 7577 7579 1
5685 7577 7580 1
5686 7581 7582 1
5687 7581 7583 1
5688 7581 7584 1
5689 7585 7586 1
5690 7585 7587 1
5691 7585 7588 1
5692 7589 7590 1
5693 7589 7591 1
5694 7589 7592 1
5695 7593 7594 1
5696 7593 7595 1
5697 7593 7596 1
5698 7597 7598 1
5699 7597 7599 1
5700 7597 7600 1
5701 7601 7602 1
5702 7601 7603 1
5703 7601 7604 1
5704 7605 7606 1
5705 7605 7607 1
5706 7605 7608 1
5707 7609 7610 1
5708 7609 7611 1
5709 7609 7612 1
5710 7613 7614 1
5711 7613 7615 1
5712 7613 7616 1
5713 7617 7618 1
5714 7617 7619 1
5715 7617 7620 1
5716 7621 7622 1
5717 7621 7623 1
5718 7621 7624 1
5719 7625 7626 1
5720 7625 7627 1
5721 7625 7628 1
5722 7629 7630 1
5723 7629 7631 1
5724 7629 7632 1
5725 7633 7634 1
5726 7633 7635 1
5727 7633 7636 1
5728 7637 7638 1
5729 7637 7639 1
5730 7637 7640 1
5731 7641 7642 1
5732 7641 7643 1
5733 7641 7644 1
5734 7645 7646 1
5735 7645 7647 1
5736 7645 7648 1
5737 7649 7650 1
5738 7649 7651 1
5739 7649 7652 1
5740 7653 7654 1
5741 7653 7655 1
5742 7653 7656 1
5743 7657 7658 1
5744 7657 7659 1
5745 7657 7660 1
5746 7661 7662 1
5747 7661 7663 1
5748 7661 7664 1
5749 7665 7666 1
5750 7665 7667 1
5751 7665 7668 1
5752 7669 7670 1
5753 7669 7671 1
5754 7669 7672 1
5755 7673 7674 1
5756 7673 7675 1
5757 7673 7676 1
5758 7677 7678 1
5759 7677 7679 1
5760 7677 7680 1
5761 7681 7682 1
5762 7681 7683 1
5763 7681 7684 1
5764 7685 7686 1
5765 7685 7687 1
5766 7685 7688 1
5767 7689 7690 1
5768 7689 7691 1
5769 7689 7692 1
5770 7693 7694 1
5771 7693 7695 1
5772 7693 7696 1
5773 7697 7698 1
5774 7697 7699 1
5775 7697 7700 1
5776 7701 7702 1
5777 7701 7703 1
5778 7701 7704 1
5779 7705 7706 1
5780 7705 7707 1
5781 7705 7708 1
5782 7709 7710 1
5783 7709 7711 1
5784 7709 7712 1
5785 7713 7714 1
5786 7713 7715 1
5787 7713 7716 1
5788 7717 7719 1
5789 7717 7720 1
5790 7717 7718 1
5791 7721 7722 1
5792 7721 7723 1
5793 7721 7724 1
5794 7725 7726 1
5795 7725 7727 1
5796 7725 7728 1
5797 7729 7730 1
5798 7729 7731 1
5799 7729 7732 1
5800 7733 7734 1
5801 7733 7735 1
5802 7733 7736 1
5803 7737 7738 1
5804 7737 7739 1
5805 7737 7740 1
5806 7741 7742 1
5807 7741 7743 1
5808 7741 7744 1
5809 7745 7746 1
5810 7745 7747 1
5811 7745 7748 1
5812 7749 7750 1
5813 7749 7751 1
5814 7749 7752 1
5815 7753 7754 1
5816 7753 7755 1
5817 7753 7756 1
5818 7757 7758 1
5819 7757 7759 1
5820 7757 7760 1
5821 7761 7762 1
5822 7761 7763 1
5823 7761 7764 1
5824 7765 7766 1
5825 7765 7767 1
5826 7765 7768 1
5827 7769 7770 1
5828 7769 7771 1
5829 7769 7772 1
5830 7773 7774 1
5831 7773 7775 1
5832 7773 7776 1
5833 7777 7780 1
5834 7777 7778 1
5835 7777 7779 1
5836 7781 7782 1
5837 7781 7783 1
5838 7781 7784 1
5839 7785 7786 1
5840 7785 7787 1
5841 7785 7788 1
5842 7789 7790 1
5843 7789 7791 1
5844 7789 7792 1
5845 7793 7794 1
5846 7793 7795 1
5847 7793 7796 1
5848 7797 7798 1
5849 7797 7799 1
5850 7797 7800 1
5851 7801 7802 1
5852 7801 7803 1
5853 7801 7804 1
5854 7805 7806 1
5855 7805 7807 1
5856 7805 7808 1
5857 7809 7810 1
5858 7809 7811 1
5859 7809 7812 1
5860 7813 7814 1
5861 7813 7815 1
5862 7813 7816 1
5863 7817 7818 1
5864 7817 7819 1
5865 7817 7820 1
5866 7821 7822 1
5867 7821 7823 1
5868 7821 7824 1
5869 7825 7826 1
5870 7825 7827 1
5871 7825 7828 1
5872 7829 7830 1
5873 7829 7831 1
5874 7829 7832 1
5875 7833 7834 1
5876 7833 7835 1
5877 7833 7836 1
5878 7837 7838 1
5879 7837 7839 1
5880 7837 7840 1
5881 7841 7842 1
5882 7841 7843 1
5883 7841 7844 1
5884 7845 7846 1
5885 7845 7847 1
5886 7845 7848 1
5887 7849 7850 1
5888 7849 7851 1
5889 7849 7852 1
5890 7853 7854 1
5891 7853 7855 1
5892 7853 7856 1
5893 7857 7858 1
5894 7857 7859 1
5895 7857 7860 1
5896 7861 7862 1
5897 7861 7863 1
5898 7861 7864 1
5899 7865 7866 1
5900 7865 7867 1
5901 7865 7868 1
5902 7869 7870 1
5903 7869 7871 1
5904 7869 7872 1
5905 7873 7874 1
5906 7873 7875 1
5907 7873 7876 1
5908 7877 7878 1
5909 7877 7879 1
5910 7877 7880 1
5911 7881 7882 1
5912 7881 7883 1
5913 7881 7884 1
5914 7885 7886 1
5915 7885 7887 1
5916 7885 7888 1
5917 7889 7890 1
5918 7889 7891 1
5919 7889 7892 1
5920 7893 7894 1
5921 7893 7895 1
5922 7893 7896 1
5923 7897 7898 1
5924 7897 7899 1
5925 7897 7900 1
5926 7901 7902 1
5927 7901 7903 1
5928 7901 7904 1
5929 7905 7908 1
5930 7905 7906 1
5931 7905 7907 1
5932 7909 7910 1
5933 7909 7911 1
5934 7909 7912 1
5935 7913 7914 1
5936 7913 7915 1
5937 7913 7916 1
5938 7917 7918 1
5939 7917 7919 1
5940 7917 7920 1
5941 7921 7922 1
5942 7921 7923 1
5943 7921 7924 1
5944 7925 7926 1
5945 7925 7927 1
5946 7925 7928 1
5947 7929 7930 1
5948 7929 7931 1
5949 7929 7932 1
5950 7933 7934 1
5951 7933 7935 1
5952 7933 7936 1
5953 7937 7938 1
5954 7937 7939 1
5955 7937 7940 1
5956 7941 7942 1
5957 7941 7943 1
5958 7941 7944 1
5959 7945 7946 1
5960 7945 7947 1
5961 7945 7948 1
5962 7949 7950 1
5963 7949 7951 1
5964 7949 7952 1
5965 7953 7954 1
5966 7953 7955 1
5967 7953 7956 1
5968 7957 7958 1
5969 7957 7959 1
5970 7957 7960 1
5971 7961 7962 1
5972 7961 7963 1
5973 7961 7964 1
5974 7965 7966 1
5975 7965 7967 1
5976 7965 7968 1
5977 7969 7970 1
5978 7969 7971 1
5979 7969 7972 1
5980 7973 7974 1
5981 7973 7975 1
5982 7973 7976 1
5983 7977 7978 1
5984 7977 7979 1
5985 7977 7980 1
5986 7981 7983 1
5987 7981 7984 1
5988 7981 7982 1
5989 7985 7986 1
5990 7985 7987 1
5991 7985 7988 1
5992 7989 7990 1
5993 7989 7991 1
5994 7989 7992 1
5995 7993 7994 1
5996 7993 7995 1
5997 7993 7996 1
5998 7997 7998 1
5999 7997 7999 1
6000 7997 8000 1
6001 8001 8002 1
6002 8001 8003 1
6003 8001 8004 1
6004 8005 8006 1
6005 8005 8007 1
6006 8005 8008 1
6007 8009 8010 1
6008 8009 8011 1
6009 8009 8012 1
6010 8013 8014 1
6011 8013 8015 1
6012 8013 8016 1
6013 8017 8018 1
6014 8017 8019 1
6015 8017 8020 1
6016 8021 8022 1
6017 8021 8023 1
6018 8021 8024 1
6019 8025 8026 1
6020 8025 8027 1
6021 8025 8028 1
6022 8029 8032 1
6023 8029 8030 1
6024 8029 8031 1
6025 8033 8034 1
6026 8033 8035 1
6027 8033 8036 1
6028 8037 8038 1
6029 8037 8039 1
6030 8037 8040 1
6031 8041 8042 1
6032 8041 8043 1
6033 8041 8044 1
6034 8045 8046 1
6035 8045 8047 1
6036 8045 8048 1
6037 8049 8050 1
6038 8049 8051 1
6039 8049 8052 1
6040 8053 8054 1
6041 8053 8055 1
6042 8053 8056 1
6043 8057 8058 1
6044 8057 8059 1
6045 8057 8060 1
6046 8061 8062 1
6047 8061 8063 1
6048 8061 8064 1
6049 8065 8066 1
6050 8065 8067 1
6051 8065 8068 1
6052 8069 8070 1
6053 8069 8071 1
6054 8069 8072 1
6055 8073 8074 1
6056 8073 8075 1
6057 8073 8076 1
6058 8077 8078 1
6059 8077 8079 1
6060 8077 8080 1
6061 8081 8082 1
6062 8081 8083 1
6063 8081 8084 1
6064 8085 8086 1
6065 8085 8087 1
6066 8085 8088 1
6067 8089 8090 1
6068 8089 8091 1
6069 8089 8092 1
6070 8093 8094 1
6071 8093 8095 1
6072 8093 8096 1
6073 8097 8098 1
6074 8097 8099 1
6075 8097 8100 1
6076 8101 8102 1
6077 8101 8103 1
6078 8101 8104 1
6079 8105 8106 1
6080 8105 8107 1
6081 8105 8108 1
6082 8109 8110 1
6083 8109 8111 1
6084 8109 8112 1
6085 8113 8114 1
6086 8113 8115 1
6087 8113 8116 1
6088 8117 8118 1
6089 8117 8119 1
6090 8117 8120 1
6091 8121 8122 1
6092 8121 8123 1
6093 8121 8124 1
6094 8125 8126 1
6095 8125 8127 1
6096 8125 8128 1
6097 8129 8130 1
6098 8129 8131 1
6099 8129 8132 1
6100 8133 8134 1
6101 8133 8135 1
6102 8133 8136 1
6103 8137 8138 1
6104 8137 8139 1
6105 8137 8140 1
6106 8141 8142 1
6107 8141 8143 1
6108 8141 8144 1
6109 8145 8146 1
6110 8145 8147 1
6111 8145 8148 1
6112 8149 8150 1
6113 8149 8151 1
6114 8149 8152 1
6115 8153 8154 1
6116 8153 8155 1
6117 8153 8156 1
6118 8157 8158 1
6119 8157 8159 1
6120 8157 8160 1
6121 8161 8162 1
6122 8161 8163 1
6123 8161 8164 1
6124 8165 8166 1
6125 8165 8167 1
6126 8165 8168 1
6127 8169 8170 1
6128 8169 8171 1
6129 8169 8172 1
6130 8173 8174 1
6131 8173 8175 1
6132 8173 8176 1
6133 8177 8178 1
6134 8177 8179 1
6135 8177 8180 1
6136 8181 8182 1
6137 8181 8183 1
6138 8181 8184 1
6139 8185 8186 1
6140 8185 8187 1
6141 8185 8188 1
6142 8189 8190 1
6143 8189 8191 1
6144 8189 8192 1
6145 8193 8194 1
6146 8193 8195 1
6147 8193 8196 1
6148 8197 8198 1
6149 8197 8199 1
6150 8197 8200 1
6151 8201 8202 1
6152 8201 8203 1
6153 8201 8204 1
6154 8205 8206 1
6155 8205 8207 1
6156 8205 8208 1
6157 8209 8210 1
6158 8209 8211 1
6159 8209 8212 1
6160 8213 8214 1
6161 8213 8215 1
6162 8213 8216 1
6163 8217 8218 1
6164 8217 8219 1
6165 8217 8220 1
6166 8221 8223 1
6167 8221 8224 1
6168 8221 8222 1
6169 8225 8226 1
6170 8225 8227 1
6171 8225 8228 1
6172 8229 8230 1
6173 8229 8231 1
6174 8229 8232 1
6175 8233 8234 1
6176 8233 8235 1
6177 8233 8236 1
6178 8237 8238 1
6179 8237 8239 1
6180 8237 8240 1
6181 8241 8242 1
6182 8241 8243 1
6183 8241 8244 1
6184 8245 8246 1
6185 8245 8247 1
6186 8245 8248 1
6187 8249 8250 1
6188 8249 8251 1
6189 8249 8252 1
6190 8253 8254 1
6191 8253 8255 1
6192 8253 8256 1
6193 8257 8258 1
6194 8257 8259 1
6195 8257 8260 1
6196 8261 8262 1
6197 8261 8263 1
6198 8261 8264 1
6199 8265 8266 1
6200 8265 8267 1
6201 8265 8268 1
6202 8269 8270 1
6203 8269 8271 1
6204 8269 8272 1
6205 8273 8274 1
6206 8273 8275 1
6207 8273 8276 1
6208 8277 8278 1
6209 8277 8279 1
6210 8277 8280 1
6211 8281 8282 1
6212 8281 8283 1
6213 8281 8284 1
6214 8285 8286 1
6215 8285 8287 1
6216 8285 8288 1
6217 8289 8290 1
6218 8289 8291 1
6219 8289 8292 1
6220 8293 8294 1
6221 8293 8295 1
6222 8293 8296 1
6223 8297 8298 1
6224 8297 8299 1
6225 8297 8300 1
6226 8301 8302 1
6227 8301 8303 1
6228 8301 8304 1
6229 8305 8306 1
6230 8305 8307 1
6231 8305 8308 1
6232 8309 8310 1
6233 8309 8311 1
6234 8309 8312 1
6235 8313 8314 1
6236 8313 8315 1
6237 8313 8316 1
6238 8317 8318 1
6239 8317 8319 1
6240 8317 8320 1
6241 8321 8322 1
6242 8321 8323 1
6243 8321 8324 1
6244 8325 8326 1
6245 8325 8327 1
6246 8325 8328 1
6247 8329 8330 1
6248 8329 8331 1
6249 8329 8332 1
6250 8333 8334 1
6251 8333 8335 1
6252 8333 8336 1
6253 8337 8338 1
6254 8337 8339 1
6255 8337 8340 1
6256 8341 8342 1
6257 8341 8343 1
6258 8341 8344 1
6259 8345 8346 1
6260 8345 8347 1
6261 8345 8348 1
6262 8349 8350 1
6263 8349 8351 1
6264 8349 8352 1
6265 8353 8354 1
6266 8353 8355 1
6267 8353 8356 1
6268 8357 8358 1
6269 8357 8359 1
6270 8357 8360 1
6271 8361 8362 1
6272 8361 8363 1
6273 8361 8364 1
6274 8365 8366 1
6275 8365 8367 1
6276 8365 8368 1
6277 8369 8370 1
6278 8369 8371 1
6279 8369 8372 1
6280 8373 8374 1
6281 8373 8375 1
6282 8373 8376 1
6283 8377 8378 1
6284 8377 8379 1
6285 8377 8380 1
6286 8381 8382 1
6287 8381 8383 1
6288 8381 8384 1
6289 8385 8386 1
6290 8385 8387 1
6291 8385 8388 1
6292 8389 8390 1
6293 8389 8391 1
6294 8389 8392 1
6295 8393 8394 1
6296 8393 8395 1
6297 8393 8396 1
6298 8397 8398 1
6299 8397 8399 1
6300 8397 8400 1
6301 8401 8402 1
6302 8401 8403 1
6303 8401 8404 1
6304 8405 8406 1
6305 8405 8407 1
6306 8405 8408 1
6307 8409 8412 1
6308 8409 8410 1
6309 8409 8411 1
6310 8413 8414 1
6311 8413 8415 1
6312 8413 8416 1
6313 8417 8418 1
6314 8417 8419 1
6315 8417 8420 1
6316 8421 8422 1
6317 8421 8423 1
6318 8421 8424 1
6319 8425 8426 1
6320 8425 8427 1
6321 8425 8428 1
6322 8429 8430 1
6323 8429 8431 1
6324 8429 8432 1
6325 8433 8434 1
6326 8433 8435 1
6327 8433 8436 1
6328 8437 8438 1
6329 8437 8439 1
6330 8437 8440 1
6331 8441 8442 1
6332 8441 8443 1
6333 8441 8444 1
6334 8445 8446 1
6335 8445 8447 1
6336 8445 8448 1
6337 8449 8450 1
6338 8449 8451 1
6339 8449 8452 1
6340 8453 8454 1
6341 8453 8455 1
6342 8453 8456 1
6343 8457 8458 1
6344 8457 8459 1
6345 8457 8460 1
6346 8461 8462 1
6347 8461 8463 1
6348 8461 8464 1
6349 8465 8466 1
6350 8465 8467 1
6351 8465 8468 1
6352 8469 8470 1
6353 8469 8471 1
6354 8469 8472 1
6355 8473 8474 1
6356 8473 8475 1
6357 8473 8476 1
6358 8477 8478 1
6359 8477 8479 1
6360 8477 8480 1
6361 8481 8482 1
6362 8481 8483 1
6363 8481 8484 1
6364 8485 8486 1
6365 8485 8487 1
6366 8485 8488 1
6367 8489 8490 1
6368 8489 8491 1
6369 8489 8492 1
6370 8493 8494 1
6371 8493 8495 1
6372 8493 8496 1
6373 8497 8498 1
6374 8497 8499 1
6375 8497 8500 1
6376 8501 8502 1
6377 8501 8503 1
6378 8501 8504 1
6379 8505 8506 1
6380 8505 8507 1
6381 8505 8508 1
6382 8509 8510 1
6383 8509 8511 1
6384 8509 8512 1
6385 8513 8514 1
6386 8513 8515 1
6387 8513 8516 1
6388 8517 8518 1
6389 8517 8519 1
6390 8517 8520 1
6391 8521 8522 1
6392 8521 8523 1
6393 8521 8524 1
6394 8525 8526 1
6395 8525 8527 1
6396 8525 8528 1
6397 8529 8530 1
6398 8529 8531 1
6399 8529 8532 1
6400 8533 8534 1
6401 8533 8535 1
6402 8533 8536 1
6403 8537 8538 1
6404 8537 8539 1
6405 8537 8540 1
6406 8541 8542 1
6407 8541 8543 1
6408 8541 8544 1
6409 8545 8546 1
6410 8545 8547 1
6411 8545 8548 1
6412 8549 8550 1
6413 8549 8551 1
6414 8549 8552 1
6415 8553 8554 1
6416 8553 8555 1
6417 8553 8556 1
6418 8557 8558 1
6419 8557 8559 1
6420 8557 8560 1
6421 8561 8562 1
6422 8561 8563 1
6423 8561 8564 1
6424 8565 8566 1
6425 8565 8567 1
6426 8565 8568 1
6427 8569 8570 1
6428 8569 8571 1
6429 8569 8572 1
6430 8573 8574 1
6431 8573 8575 1
6432 8573 8576 1
6433 8577 8578 1
6434 8577 8579 1
6435 8577 8580 1
6436 8581 8582 1
6437 8581 8583 1
6438 8581 8584 1
6439 8585 8586 1
6440 8585 8587 1
6441 8585 8588 1
6442 8589 8590 1
6443 8589 8591 1
6444 8589 8592 1
6445 8593 8594 1
6446 8593 8595 1
6447 8593 8596 1
6448 8597 8598 1
6449 8597 8599 1
6450 8597 8600 1
6451 8601 8602 1
6452 8601 8603 1
6453 8601 8604 1
6454 8605 8606 1
6455 8605 8607 1
6456 8605 8608 1
6457 8609 8610 1
6458 8609 8611 1
6459 8609 8612 1
6460 8613 8614 1
6461 8613 8615 1
6462 8613 8616 1
6463 8617 8618 1
6464 8617 8619 1
6465 8617 8620 1
6466 8621 8622 1
6467 8621 8623 1
6468 8621 8624 1
6469 8625 8626 1
6470 8625 8627 1
6471 8625 8628 1
6472 8629 8630 1
6473 8629 8631 1
6474 8629 8632 1
6475 8633 8634 1
6476 8633 8635 1
6477 8633 8636 1
6478 8637 8638 1
6479 8637 8639 1
6480 8637 8640 1
6481 8641 8642 1
6482 8641 8643 1
6483 8641 8644 1
6484 8645 8646 1
6485 8645 8648 1
6486 8645 8647 1
6487 8649 8650 1
6488 8649 8651 1
6489 8649 8652 1
6490 8653 8654 1
6491 8653 8655 1
6492 8653 8656 1
6493 8657 8658 1
6494 8657 8659 1
6495 8657 8660 1
6496 8661 8662 1
6497 8661 8663 1
6498 8661 8664 1
6499 8665 8666 1
6500 8665 8667 1
6501 8665 8668 1
6502 8669 8670 1
6503 8669 8671 1
6504 8669 8672 1
6505 8673 8674 1
6506 8673 8675 1
6507 8673 8676 1
6508 8677 8678 1
6509 8677 8679 1
6510 8677 8680 1
6511 8681 8682 1
6512 8681 8683 1
6513 8681 8684 1
6514 8685 8686 1
6515 8685 8687 1
6516 8685 8688 1
6517 8689 8690 1
6518 8689 8691 1
6519 8689 8692 1
6520 8693 8694 1
6521 8693 8695 1
6522 8693 8696 1
6523 8697 8698 1
6524 8697 8699 1
6525 8697 8700 1
6526 8701 8702 1
6527 8701 8703 1
6528 8701 8704 1
6529 8705 8706 1
6530 8705 8707 1
6531 8705 8708 1
6532 8709 8710 1
6533 8709 8711 1
6534 8709 8712 1
6535 8713 8714 1
6536 8713 8715 1
6537 8713 8716 1
6538 8717 8718 1
6539 8717 8719 1
6540 8717 8720 1
6541 8721 8722 1
6542 8721 8723 1
6543 8721 8724 1
6544 8725 8727 1
6545 8725 8728 1
6546 8725 8726 1
6547 8729 8730 1
6548 8729 8731 1
6549 8729 8732 1
6550 8733 8734 1
6551 8733 8735 1
6552 8733 8736 1
6553 8737 8738 1
6554 8737 8739 1
6555 8737 8740 1
6556 8741 8742 1
6557 8741 8743 1
6558 8741 8744 1
6559 8745 8746 1
6560 8745 8747 1
6561 8745 8748 1
6562 8749 8750 1
6563 8749 8751 1
6564 8749 8752 1
6565 8753 8754 1
6566 8753 8755 1
6567 8753 8756 1
6568 8757 8758 1
6569 8757 8759 1
6570 8757 8760 1
6571 8761 8762 1
6572 8761 8763 1
6573 8761 8764 1
6574 8765 8766 1
6575 8765 8767 1
6576 8765 8768 1
6577 8769 8770 1
6578 8769 8771 1
6579 8769 8772 1
6580 8773 8774 1
6581 8773 8775 1
6582 8773 8776 1
6583 8777 8778 1
6584 8777 8779 1
6585 8777 8780 1
6586 8781 8782 1
6587 8781 8783 1
6588 8781 8784 1
6589 8785 8786 1
6590 8785 8788 1
6591 8785 8787 1
6592 8789 8790 1
6593 8789 8791 1
6594 8789 8792 1
6595 8793 8794 1
6596 8793 8795 1
6597 8793 8796 1
6598 8797 8798 1
6599 8797 8799 1
6600 8797 8800 1
6601 8801 8802 1
6602 8801 8803 1
6603 8801 8804 1
6604 8805 8806 1
6605 8805 8807 1
6606 8805 8808 1
6607 8809 8810 1
6608 8809 8811 1
6609 8809 8812 1
6610 8813 8814 1
6611 8813 8815 1
6612 8813 8816 1
6613 8817 8818 1
6614 8817 8819 1
6615 8817 8820 1
6616 8821 8822 1
6617 8821 8823 1
6618 8821 8824 1
6619 8825 8826 1
6620 8825 8827 1
6621 8825 8828 1
6622 8829 8830 1
6623 8829 8831 1
6624 8829 8832 1
6625 8833 8834 1
6626 8833 8835 1
6627 8833 8836 1
6628 8837 8838 1
6629 8837 8839 1
6630 8837 8840 1
6631 8841 8842 1
6632 8841 8843 1
6633 8841 8844 1
6634 8845 8846 1
6635 8845 8847 1
6636 8845 8848 1
6637 8849 8850 1
6638 8849 8851 1
6639 8849 8852 1
6640 8853 8854 1
6641 8853 8855 1
6642 8853 8856 1
6643 8857 8858 1
6644 8857 8859 1
6645 8857 8860 1
6646 8861 8862 1
6647 8861 8863 1
6648 8861 8864 1
6649 8865 8866 1
6650 8865 8867 1
6651 8865 8868 1
6652 8869 8870 1
6653 8869 8871 1
6654 8869 8872 1
6655 8873 8874 1
6656 8873 8875 1
6657 8873 8876 1
6658 8877 8878 1
6659 8877 8879 1
6660 8877 8880 1
6661 8881 8882 1
6662 8881 8883 1
6663 8881 8884 1
6664 8885 8886 1
6665 8885 8887 1
6666 8885 8888 1
6667 8889 8890 1
6668 8889 8891 1
6669 8889 8892 1
6670 8893 8894 1
6671 8893 8895 1
6672 8893 8896 1
6673 8897 8898 1
6674 8897 8899 1
6675 8897 8900 1
6676 8901 8902 1
6677 8901 8903 1
6678 8901 8904 1
6679 8905 8906 1
6680 8905 8907 1
6681 8905 8908 1
6682 8909 8910 1
6683 8909 8911 1
6684 8909 8912 1
6685 8913 8916 1
6686 8913 8914 1
6687 8913 8915 1
6688 8917 8918 1
6689 8917 8919 1
6690 8917 8920 1
6691 8921 8922 1
6692 8921 8923 1
6693 8921 8924 1
6694 8925 8926 1
6695 8925 8927 1
6696 8925 8928 1
6697 8929 8930 1
6698 8929 8931 1
6699 8929 8932 1
6700 8933 8934 1
6701 8933 8935 1
6702 8933 8936 1
6703 8937 8938 1
6704 8937 8939 1
6705 8937 8940 1
6706 8941 8942 1
6707 8941 8943 1
6708 8941 8944 1
6709 8945 8946 1
6710 8945 8947 1
6711 8945 8948 1
6712 8949 8950 1
6713 8949 8951 1
6714 8949 8952 1
6715 8953 8954 1
6716 8953 8955 1
6717 8953 8956 1
6718 8957 8958 1
6719 8957 8959 1
6720 8957 8960 1
6721 8961 8962 1
6722 8961 8963 1
6723 8961 8964 1
6724 8965 8966 1
6725 8965 8967 1
6726 8965 8968 1
6727 8969 8970 1
6728 8969 8971 1
6729 8969 8972 1
6730 8973 8974 1
6731 8973 8975 1
6732 8973 8976 1
6733 8977 8978 1
6734 8977 8979 1
6735 8977 8980 1
6736 8981 8982 1
6737 8981 8983 1
6738 8981 8984 1
6739 8985 8986 1
6740 8985 8987 1
6741 8985 8988 1
6742 8989 8990 1
6743 8989 8991 1
6744 8989 8992 1
6745 8993 8994 1
6746 8993 8995 1
6747 8993 8996 1
6748 8997 8998 1
6749 8997 8999 1
6750 8997 9000 1
6751 9001 9002 1
6752 9001 9003 1
6753 9001 9004 1
6754 9005 9006 1
6755 9005 9007 1
6756 9005 9008 1
6757 9009 9010 1
6758 9009 9011 1
6759 9009 9012 1
6760 9013 9014 1
6761 9013 9015 1
6762 9013 9016 1
6763 9017 9018 1
6764 9017 9019 1
6765 9017 9020 1
6766 9021 9022 1
6767 9021 9023 1
6768 9021 9024 1
6769 9025 9026 1
6770 9025 9027 1
6771 9025 9028 1
6772 9029 9030 1
6773 9029 9031 1
6774 9029 9032 1
6775 9033 9034 1
6776 9033 9035 1
6777 9033 9036 1
6778 9037 9038 1
6779 9037 9039 1
6780 9037 9040 1
6781 9041 9042 1
6782 9041 9043 1
6783 9041 9044 1
6784 9045 9046 1
6785 9045 9047 1
6786 9045 9048 1
6787 9049 9050 1
6788 9049 9051 1
6789 9049 9052 1
6790 9053 9054 1
6791 9053 9055 1
6792 9053 9056 1
6793 9057 9058 1
6794 9057 9059 1
6795 9057 9060 1
6796 9061 9062 1
6797 9061 9063 1
6798 9061 9064 1
6799 9065 9066 1
6800 9065 9067 1
6801 9065 9068 1
6802 9069 9070 1
6803 9069 9071 1
6804 9069 9072 1
6805 9073 9074 1
6806 9073 9075 1
6807 9073 9076 1
6808 9077 9078 1
6809 9077 9079 1
6810 9077 9080 1
6811 9081 9082 1
6812 9081 9083 1
6813 9081 9084 1
6814 9085 9086 1
6815 9085 9087 1
6816 9085 9088 1
6817 9089 9090 1
6818 9089 9091 1
6819 9089 9092 1
6820 9093 9094 1
6821 9093 9095 1
6822 9093 9096 1
6823 9097 9098 1
6824 9097 9099 1
6825 9097 9100 1
6826 9101 9102 1
6827 9101 9103 1
6828 9101 9104 1
6829 9105 9106 1
6830 9105 9107 1
6831 9105 9108 1
6832 9109 9110 1
6833 9109 9111 1
6834 9109 9112 1
6835 9113 9114 1
6836 9113 9115 1
6837 9113 9116 1
6838 9117 9118 1
6839 9117 9119 1
6840 9117 9120 1
6841 9121 9122 1
6842 9121 9123 1
6843 9121 9124 1
6844 9125 9126 1
6845 9125 9127 1
6846 9125 9128 1
6847 9129 9130 1
6848 9129 9131 1
6849 9129 9132 1
6850 9133 9134 1
6851 9133 9135 1
6852 9133 9136 1
6853 9137 9138 1
6854 9137 9139 1
6855 9137 9140 1
6856 9141 9142 1
6857 9141 9143 1
6858 9141 9144 1
6859 9145 9146 1
6860 9145 9147 1
6861 9145 9148 1
6862 9149 9150 1
6863 9149 9151 1
6864 9149 9152 1
6865 9153 9154 1
6866 9153 9155 1
6867 9153 9156 1
6868 9157 9158 1
6869 9157 9159 1
6870 9157 9160 1
6871 9161 9162 1
6872 9161 9163 1
6873 9161 9164 1
6874 9165 9166 1
6875 9165 9167 1
6876 9165 9168 1
6877 9169 9170 1
6878 9169 9171 1
6879 9169 9172 1
6880 9173 9174 1
6881 9173 9175 1
6882 9173 9176 1
6883 9177 9178 1
6884 9177 9179 1
6885 9177 9180 1
6886 9181 9182 1
6887 9181 9183 1
6888 9181 9184 1
6889 9185 9186 1
6890 9185 9187 1
6891 9185 9188 1
6892 9189 9190 1
6893 9189 9191 1
6894 9189 9192 1
6895 9193 9194 1
6896 9193 9195 1
6897 9193 9196 1
6898 9197 9198 1
6899 9197 9199 1
6900 9197 9200 1
6901 9201 9202 1
6902 9201 9203 1
6903 9201 9204 1
6904 9205 9206 1
6905 9205 9207 1
6906 9205 9208 1
6907 9209 9210 1
6908 9209 9211 1
6909 9209 9212 1
6910 9213 9214 1
6911 9213 9215 1
6912 9213 9216 1
6913 9217 9218 1
6914 9217 9219 1
6915 9217 9220 1
6916 9221 9222 1
6917 9221 9223 1
6918 9221 9224 1
6919 9225 9226 1
6920 9225 9227 1
6921 9225 9228 1
6922 9229 9230 1
6923 9229 9231 1
6924 9229 9232 1
6925 9233 9234 1
6926 9233 9235 1
6927 9233 9236 1
6928 9237 9238 1
6929 9237 9239 1
6930 9237 9240 1
6931 9241 9242 1
6932 9241 9243 1
6933 9241 9244 1
6934 9245 9246 1
6935 9245 9247 1
6936 9245 9248 1
6937 9249 9250 1
6938 9249 9251 1
6939 9249 9252 1
6940 9253 9254 1
6941 9253 9255 1
6942 9253 9256 1
6943 9257 9258 1
6944 9257 9259 1
6945 9257 9260 1
6946 9261 9262 1
6947 9261 9263 1
6948 9261 9264 1
6949 9265 9266 1
6950 9265 9267 1
6951 9265 9268 1
6952 9269 9270 1
6953 9269 9271 1
6954 9269 9272 1
6955 9273 9274 1
6956 9273 9275 1
6957 9273 9276 1
6958 9277 9280 1
6959 9277 9278 1
6960 9277 9279 1
6961 9281 9282 1
6962 9281 9283 1
6963 9281 9284 1
6964 9285 9286 1
6965 9285 9287 1
6966 9285 9288 1
6967 9289 9290 1
6968 9289 9291 1
6969 9289 9292 1
6970 9293 9294 1
6971 9293 9295 1
6972 9293 9296 1
6973 9297 9298 1
6974 9297 9299 1
6975 9297 9300 1
6976 9301 9302 1
6977 9301 9303 1
6978 9301 9304 1
6979 9305 9306 1
6980 9305 9307 1
6981 9305 9308 1
6982 9309 9310 1
6983 9309 9311 1
6984 9309 9312 1
6985 9313 9314 1
6986 9313 9315 1
6987 9313 9316 1
6988 9317 9318 1
6989 9317 9319 1
6990 9317 9320 1
6991 9321 9322 1
6992 9321 9323 1
6993 9321 9324 1
6994 9325 9326 1
6995 9325 9327 1
6996 9325 9328 1
6997 9329 9330 1
6998 9329 9331 1
6999 9329 9332 1
7000 9333 9334 1
7001 9333 9335 1
7002 9333 9336 1
7003 9337 9338 1
7004 9337 9339 1
7005 9337 9340 1
7006 9341 9342 1
7007 9341 9343 1
7008 9341 9344 1
7009 9345 9346 1
7010 9345 9347 1
7011 9345 9348 1
7012 9349 9350 1
7013 9349 9351 1
7014 9349 9352 1
7015 9353 9354 1
7016 9353 9355 1
7017 9353 9356 1
7018 9357 9358 1
7019 9357 9359 1
7020 9357 9360 1
7021 9361 9362 1
7022 9361 9363 1
7023 9361 9364 1
7024 9365 9366 1
7025 9365 9367 1
7026 9365 9368 1
7027 9369 9370 1
7028 9369 9371 1
7029 9369 9372 1
7030 9373 9374 1
7031 9373 9375 1
7032 9373 9376 1
7033 9377 9378 1
7034 9377 9379 1
7035 9377 9380 1
7036 9381 9382 1
7037 9381 9383 1
7038 9381 9384 1
7039 9385 9386 1
7040 9385 9387 1
7041 9385 9388 1
7042 9389 9390 1
7043 9389 9391 1
7044 9389 9392 1
7045 9393 9394 1
7046 9393 9395 1
7047 9393 9396 1
7048 9397 9398 1
7049 9397 9399 1
7050 9397 9400 1
7051 9401 9402 1
7052 9401 9403 1
7053 9401 9404 1
7054 9405 9406 1
7055 9405 9407 1
7056 9405 9408 1
7057 9409 9410 1
7058 9409 9411 1
7059 9409 9412 1
7060 9413 9414 1
7061 9413 9415 1
7062 9413 9416 1
7063 9417 9420 1
7064 9417 9418 1
7065 9417 9419 1
7066 9421 9422 1
7067 9421 9423 1
7068 9421 9424 1
7069 9425 9426 1
7070 9425 9427 1
7071 9425 9428 1
7072 9429 9430 1
7073 9429 9431 1
7074 9429 9432 1
7075 9433 9434 1
7076 9433 9435 1
7077 9433 9436 1
7078 9437 9438 1
7079 9437 9439 1
7080 9437 9440 1
7081 9441 9442 1
7082 9441 9443 1
7083 9441 9444 1
7084 9445 9446 1
7085 9445 9447 1
7086 9445 9448 1
7087 9449 9450 1
7088 9449 9451 1
7089 9449 9452 1
7090 9453 9454 1
7091 9453 9455 1
7092 9453 9456 1
7093 9457 9458 1
7094 9457 9459 1
7095 9457 9460 1
7096 9461 9462 1
7097 9461 9463 1
7098 9461 9464 1
7099 9465 9466 1
7100 9465 9467 1
7101 9465 9468 1
7102 9469 9470 1
7103 9469 9471 1
7104 9469 9472 1
7105 9473 9474 1
7106 9473 9475 1
7107 9473 9476 1
7108 9477 9478 1
7109 9477 9479 1
7110 9477 9480 1
7111 9481 9482 1
7112 9481 9483 1
7113 9481 9484 1
7114 9485 9486 1
7115 9485 9487 1
7116 9485 9488 1
7117 9489 9490 1
7118 9489 9491 1
7119 9489 9492 1
7120 9493 9494 1
7121 9493 9495 1
7122 9493 9496 1
7123 9497 9498 1
7124 9497 9499 1
7125 9497 9500 1
7126 9501 9502 1
7127 9501 9503 1
7128 9501 9504 1
7129 9505 9506 1
7130 9505 9507 1
7131 9505 9508 1
7132 9509 9510 1
7133 9509 9511 1
7134 9509 9512 1
7135 9513 9514 1
7136 9513 9515 1
7137 9513 9516 1
7138 9517 9518 1
7139 9517 9519 1
7140 9517 9520 1
7141 9521 9522 1
7142 9521 9523 1
7143 9521 9524 1
7144 9525 9526 1
7145 9525 9527 1
7146 9525 9528 1
7147 9529 9530 1
7148 9529 9531 1
7149 9529 9532 1
7150 9533 9534 1
7151 9533 9535 1
7152 9533 9536 1
7153 9537 9538 1
7154 9537 9539 1
7155 9537 9540 1
7156 9541 9542 1
7157 9541 9543 1
7158 9541 9544 1
7159 9545 9546 1
7160 9545 9547 1
7161 9545 9548 1
7162 9549 9550 1
7163 9549 9551 1
7164 9549 9552 1
7165 9553 9554 1
7166 9553 9555 1
7167 9553 9556 1
7168 9557 9558 1
7169 9557 9559 1
7170 9557 9560 1
7171 9561 9562 1
7172 9561 9563 1
7173 9561 9564 1
7174 9565 9566 1
7175 9565 9567 1
7176 9565 9568 1
7177 9569 9570 1
7178 9569 9571 1
7179 9569 9572 1
7180 9573 9574 1
7181 9573 9575 1
7182 9573 9576 1
7183 9577 9578 1
7184 9577 9579 1
7185 9577 9580 1
7186 9581 9583 1
7187 9581 9584 1
7188 9581 9582 1
7189 9585 9586 1
7190 9585 9587 1
7191 9585 9588 1
7192 9589 9590 1
7193 9589 9591 1
7194 9589 9592 1
7195 9593 9594 1
7196 9593 9595 1
7197 9593 9596 1
7198 9597 9598 1
7199 9597 9599 1
7200 9597 9600 1
7201 9601 9602 1
7202 9601 9603 1
7203 9601 9604 1
7204 9605 9606 1
7205 9605 9607 1
7206 9605 9608 1
7207 9609 9610 1
7208 9609 9611 1
7209 9609 9612 1
7210 9613 9614 1
7211 9613 9615 1
7212 9613 9616 1
7213 9617 9618 1
7214 9617 9619 1
7215 9617 9620 1
7216 9621 9622 1
7217 9621 9623 1
7218 9621 9624 1
7219 9625 9626 1
7220 9625 9627 1
7221 9625 9628 1
7222 9629 9630 1
7223 9629 9631 1
7224 9629 9632 1
7225 9633 9634 1
7226 9633 9635 1
7227 9633 9636 1
7228 9637 9638 1
7229 9637 9639 1
7230 9637 9640 1
7231 9641 9642 1
7232 9641 9643 1
7233 9641 9644 1
7234 9645 9646 1
7235 9645 9647 1
7236 9645 9648 1
7237 9649 9650 1
7238 9649 9651 1
7239 9649 9652 1
7240 9653 9654 1
7241 9653 9655 1
7242 9653 9656 1
7243 9657 9658 1
7244 9657 9659 1
7245 9657 9660 1
7246 9661 9662 1
7247 9661 9663 1
7248 9661 9664 1
7249 9665 9666 1
7250 9665 9667 1
7251 9665 9668 1
7252 9669 9672 1
7253 9669 9670 1
7254 9669 9671 1
7255 9673 9674 1
7256 9673 9675 1
7257 9673 9676 1
7258 9677 9678 1
7259 9677 9679 1
7260 9677 9680 1
7261 9681 9682 1
7262 9681 9683 1
7263 9681 9684 1
7264 9685 9686 1
7265 9685 9687 1
7266 9685 9688 1
7267 9689 9690 1
7268 9689 9691 1
7269 9689 9692 1
7270 9693 9694 1
7271 9693 9695 1
7272 9693 9696 1
7273 9697 9698 1
7274 9697 9699 1
7275 9697 9700 1
7276 9701 9702 1
7277 9701 9703 1
7278 9701 9704 1
7279 9705 9706 1
7280 9705 9707 1
7281 9705 9708 1
7282 9709 9710 1
7283 9709 9711 1
7284 9709 9712 1
7285 9713 9714 1
7286 9713 9715 1
7287 9713 9716 1
7288 9717 9718 1
7289 9717 9719 1
7290 9717 9720 1
7291 9721 9722 1
7292 9721 9723 1
7293 9721 9724 1
7294 9725 9726 1
7295 9725 9727 1
7296 9725 9728 1
7297 9729 9730 1
7298 9729 9731 1
7299 9729 9732 1
7300 9733 9735 1
7301 9733 9736 1
7302 9733 9734 1
7303 9737 9738 1
7304 9737 9739 1
7305 9737 9740 1
7306 9741 9742 1
7307 9741 9743 1
7308 9741 9744 1
7309 9745 9746 1
7310 9745 9747 1
7311 9745 9748 1
7312 9749 9750 1
7313 9749 9751 1
7314 9749 9752 1
7315 9753 9754 1
7316 9753 9755 1
7317 9753 9756 1
7318 9757 9758 1
7319 9757 9759 1
7320 9757 9760 1
7321 9761 9762 1
7322 9761 9763 1
7323 9761 9764 1
7324 9765 9766 1
7325 9765 9767 1
7326 9765 9768 1
7327 9769 9770 1
7328 9769 9771 1
7329 9769 9772 1
7330 9773 9774 1
7331 9773 9775 1
7332 9773 9776 1
7333 9777 9778 1
7334 9777 9779 1
7335 9777 9780 1
7336 9781 9782 1
7337 9781 9783 1
7338 9781 9784 1
7339 9785 9786 1
7340 9785 9787 1
7341 9785 9788 1
7342 9789 9790 1
7343 9789 9791 1
7344 9789 9792 1
7345 9793 9794 1
7346 9793 9795 1
7347 9793 9796 1
7348 9797 9798 1
7349 9797 9799 1
7350 9797 9800 1
7351 9801 9802 1
7352 9801 9803 1
7353 9801 9804 1
7354 9805 9806 1
7355 9805 9807 1
7356 9805 9808 1
7357 9809 9810 1
7358 9809 9811 1
7359 9809 9812 1
7360 9813 9814 1
7361 9813 9815 1
7362 9813 9816 1
7363 9817 9818 1
7364 9817 9819 1
7365 9817 9820 1
7366 9821 9822 1
7367 9821 9823 1
7368 9821 9824 1
7369 9825 9826 1
7370 9825 9827 1
7371 9825 9828 1
7372 9829 9830 1
7373 9829 9831 1
7374 9829 9832 1
7375 9833 9834 1
7376 9833 9835 1
7377 9833 9836 1
7378 9837 9838 1
7379 9837 9839 1
7380 9837 9840 1
7381 9841 9842 1
7382 9841 9843 1
7383 9841 9844 1
7384 9845 9846 1
7385 9845 9847 1
7386 9845 9848 1
7387 9849 9850 1
7388 9849 9851 1
7389 9849 9852 1
7390 9853 9854 1
7391 9853 9855 1
7392 9853 9856 1
7393 9857 9858 1
7394 9857 9859 1
7395 9857 9860 1
7396 9861 9862 1
7397 9861 9863 1
7398 9861 9864 1
7399 9865 9866 1
7400 9865 9867 1
7401 9865 9868 1
7402 9869 9870 1
7403 9869 9871 1
7404 9869 9872 1
7405 9873 9874 1
7406 9873 9875 1
7407 9873 9876 1
7408 9877 9878 1
7409 9877 9879 1
7410 9877 9880 1
7411 9881 9882 1
7412 9881 9883 1
7413 9881 9884 1
7414 9885 9886 1
7415 9885 9887 1
7416 9885 9888 1
7417 9889 9890 1
7418 9889 9891 1
7419 9889 9892 1
7420 9893 9894 1
7421 9893 9895 1
7422 9893 9896 1
7423 9897 9898 1
7424 9897 9899 1
7425 9897 9900 1
7426 9901 9902 1
7427 9901 9903 1
7428 9901 9904 1
7429 9905 9906 1
7430 9905 9907 1
7431 9905 9908 1
7432 9909 9910 1
7433 9909 9911 1
7434 9909 9912 1
7435 9913 9914 1
7436 9913 9915 1
7437 9913 9916 1
7438 9917 9918 1
7439 9917 9919 1
7440 9917 9920 1
7441 9921 9924 1
7442 9921 9922 1
7443 9921 9923 1
7444 9925 9926 1
7445 9925 9927 1
7446 9925 9928 1
7447 9929 9930 1
7448 9929 9931 1
7449 9929 9932 1
7450 9933 9934 1
7451 9933 9935 1
7452 9933 9936 1
7453 9937 9938 1
7454 9937 9939 1
7455 9937 9940 1
7456 9941 9942 1
7457 9941 9943 1
7458 9941 9944 1
7459 9945 9946 1
7460 9945 9947 1
7461 9945 9948 1
7462 9949 9950 1
7463 9949 9951 1
7464 9949 9952 1
7465 9953 9954 1
7466 9953 9955 1
7467 9953 9956 1
7468 9957 9958 1
7469 9957 9959 1
7470 9957 9960 1
7471 9961 9962 1
7472 9961 9963 1
7473 9961 9964 1
7474 9965 9966 1
7475 9965 9967 1
7476 9965 9968 1
7477 9969 9970 1
7478 9969 9971 1
7479 9969 9972 1
7480 9973 9974 1
7481 9973 9975 1
7482 9973 9976 1
7483 9977 9978 1
7484 9977 9979 1
7485 9977 9980 1
7486 9981 9982 1
7487 9981 9983 1
7488 9981 9984 1
7489 9985 9986 1
7490 9985 9987 1
7491 9985 9988 1
7492 9989 9990 1
7493 9989 9991 1
7494 9989 9992 1
7495 9993 9994 1
7496 9993 9995 1
7497 9993 9996 1
7498 9997 9998 1
7499 9997 9999 1
7500 10000 9997 1
7501 10001 10002 1
7502 10001 10003 1
7503 10001 10004 1
7504 10005 10006 1
7505 10005 10007 1
7506 10005 10008 1
7507 10009 10010 1
7508 10009 10011 1
7509 10009 10012 1
7510 10013 10014 1
7511 10013 10015 1
7512 10013 10016 1
7513 10017 10018 1
7514 10017 10019 1
7515 10017 10020 1
7516 10021 10022 1
7517 10021 10023 1
7518 10021 10024 1
7519 10025 10026 1
7520 10025 10027 1
7521 10025 10028 1
7522 10029 10030 1
7523 10029 10031 1
7524 10029 10032 1
7525 10033 10034 1
7526 10033 10035 1
7527 10033 10036 1
7528 10037 10038 1
7529 10037 10039 1
7530 10037 10040 1
7531 10041 10042 1
7532 10041 10043 1
7533 10041 10044 1
7534 10045 10046 1
7535 10045 10047 1
7536 10045 10048 1
7537 10049 10050 1
7538 10049 10051 1
7539 10049 10052 1
7540 10053 10054 1
7541 10053 10055 1
7542 10053 10056 1
7543 10057 10058 1
7544 10057 10059 1
7545 10057 10060 1
7546 10061 10062 1
7547 10061 10063 1
7548 10061 10064 1
7549 10065 10066 1
7550 10065 10067 1
7551 10065 10068 1
7552 10069 10070 1
7553 10069 10071 1
7554 10069 10072 1
7555 10073 10074 1
7556 10073 10075 1
7557 10073 10076 1
7558 10077 10078 1
7559 10077 10079 1
7560 10077 10080 1
7561 10081 10082 1
7562 10081 10083 1
7563 10081 10084 1
7564 10085 10086 1
7565 10085 10087 1
7566 10085 10088 1
7567 10089 10090 1
7568 10089 10091 1
7569 10089 10092 1
7570 10093 10094 1
7571 10093 10095 1
7572 10093 10096 1
7573 10097 10098 1
7574 10097 10099 1
7575 10097 10100 1
7576 10101 10102 1
7577 10101 10103 1
7578 10101 10104 1
7579 10105 10106 1
7580 10105 10107 1
7581 10105 10108 1
7582 10109 10110 1
7583 10109 10111 1
7584 10109 10112 1
7585 10113 10114 1
7586 10113 10115 1
7587 10113 10116 1
7588 10117 10118 1
7589 10117 10119 1
7590 10117 10120 1
7591 10121 10122 1
7592 10121 10123 1
7593 10121 10124 1
7594 10125 10126 1
7595 10125 10127 1
7596 10125 10128 1
7597 10129 10130 1
7598 10129 10131 1
7599 10129 10132 1
7600 10133 10134 1
7601 10133 10135 1
7602 10133 10136 1
7603 10137 10138 1
7604 10137 10139 1
7605 10137 10140 1
7606 10141 10142 1
7607 10141 10143 1
7608 10141 10144 1
7609 10145 10146 1
7610 10145 10147 1
7611 10145 10148 1
7612 10149 10150 1
7613 10149 10151 1
7614 10149 10152 1
7615 10153 10154 1
7616 10153 10155 1
7617 10153 10156 1
7618 10157 10158 1
7619 10157 10159 1
7620 10157 10160 1
7621 10161 10162 1
7622 10161 10163 1
7623 10161 10164 1
7624 10165 10166 1
7625 10165 10167 1
7626 10165 10168 1
7627 10169 10170 1
7628 10169 10171 1
7629 10169 10172 1
7630 10173 10176 1
7631 10173 10174 1
7632 10173 10175 1
7633 10177 10178 1
7634 10177 10179 1
7635 10177 10180 1
7636 10181 10182 1
7637 10181 10183 1
7638 10181 10184 1
7639 10185 10186 1
7640 10185 10187 1
7641 10185 10188 1
7642 10189 10190 1
7643 10189 10191 1
7644 10189 10192 1
7645 10193 10194 1
7646 10193 10195 1
7647 10193 10196 1
7648 10197 10198 1
7649 10197 10199 1
7650 10197 10200 1
7651 10201 10202 1
7652 10201 10203 1
7653 10201 10204 1
7654 10205 10206 1
7655 10205 10207 1
7656 10205 10208 1
7657 10209 10210 1
7658 10209 10211 1
7659 10209 10212 1
7660 10213 10214 1
7661 10213 10215 1
7662 10213 10216 1
7663 10217 10218 1
7664 10217 10219 1
7665 10217 10220 1
7666 10221 10222 1
7667 10221 10223 1
7668 10221 10224 1
7669 10225 10226 1
7670 10225 10227 1
7671 10225 10228 1
7672 10229 10230 1
7673 10229 10231 1
7674 10229 10232 1
7675 10233 10234 1
7676 10233 10235 1
7677 10233 10236 1
7678 10237 10239 1
7679 10237 10240 1
7680 10237 10238 1
7681 10241 10242 1
7682 10241 10243 1
7683 10241 10244 1
7684 10245 10246 1
7685 10245 10247 1
7686 10245 10248 1
7687 10249 10250 1
7688 10249 10251 1
7689 10249 10252 1
7690 10253 10254 1
7691 10253 10255 1
7692 10253 10256 1
7693 10257 10258 1
7694 10257 10259 1
7695 10257 10260 1
7696 10261 10262 1
7697 10261 10263 1
7698 10261 10264 1
7699 10265 10266 1
7700 10265 10267 1
7701 10265 10268 1
7702 10269 10270 1
7703 10269 10271 1
7704 10269 10272 1
7705 10273 10274 1
7706 10273 10275 1
7707 10273 10276 1
7708 10277 10278 1
7709 10277 10279 1
7710 10277 10280 1
7711 10281 10282 1
7712 10281 10283 1
7713 10281 10284 1
7714 10285 10286 1
7715 10285 10287 1
7716 10285 10288 1
7717 10289 10290 1
7718 10289 10291 1
7719 10289 10292 1
7720 10293 10294 1
7721 10293 10295 1
7722 10293 10296 1
7723 10297 10300 1
7724 10297 10298 1
7725 10297 10299 1
7726 10301 10302 1
7727 10301 10303 1
7728 10301 10304 1
7729 10305 10306 1
7730 10305 10307 1
7731 10305 10308 1
7732 10309 10310 1
7733 10309 10311 1
7734 10309 10312 1
7735 10313 10314 1
7736 10313 10315 1
7737 10313 10316 1
7738 10317 10318 1
7739 10317 10319 1
7740 10317 10320 1
7741 10321 10322 1
7742 10321 10323 1
7743 10321 10324 1
7744 10325 10326 1
7745 10325 10327 1
7746 10325 10328 1
7747 10329 10330 1
7748 10329 10331 1
7749 10329 10332 1
7750 10333 10334 1
7751 10333 10335 1
7752 10333 10336 1
7753 10337 10338 1
7754 10337 10339 1
7755 10337 10340 1
7756 10341 10342 1
7757 10341 10343 1
7758 10341 10344 1
7759 10345 10346 1
7760 10345 10347 1
7761 10345 10348 1
7762 10349 10350 1
7763 10349 10351 1
7764 10349 10352 1
7765 10353 10354 1
7766 10353 10355 1
7767 10353 10356 1
7768 10357 10358 1
7769 10357 10359 1
7770 10357 10360 1
7771 10361 10362 1
7772 10361 10363 1
7773 10361 10364 1
7774 10365 10366 1
7775 10365 10367 1
7776 10365 10368 1
7777 10369 10370 1
7778 10369 10371 1
7779 10369 10372 1
7780 10373 10374 1
7781 10373 10375 1
7782 10373 10376 1
7783 10377 10378 1
7784 10377 10379 1
7785 10377 10380 1
7786 10381 10382 1
7787 10381 10383 1
7788 10381 10384 1
7789 10385 10386 1
7790 10385 10388 1
7791 10385 10387 1
7792 10389 10390 1
7793 10389 10391 1
7794 10389 10392 1
7795 10393 10394 1
7796 10393 10395 1
7797 10393 10396 1
7798 10397 10398 1
7799 10397 10399 1
7800 10397 10400 1
7801 10401 10402 1
7802 10401 10403 1
7803 10401 10404 1
7804 10405 10406 1
7805 10405 10407 1
7806 10405 10408 1
7807 10409 10410 1
7808 10409 10411 1
7809 10409 10412 1
7810 10413 10414 1
7811 10413 10415 1
7812 10413 10416 1
7813 10417 10418 1
7814 10417 10419 1
7815 10417 10420 1
7816 10421 10422 1
7817 10421 10423 1
7818 10421 10424 1
7819 10425 10428 1
7820 10425 10426 1
7821 10425 10427 1
7822 10429 10430 1
7823 10429 10431 1
7824 10429 10432 1
7825 10433 10434 1
7826 10433 10435 1
7827 10433 10436 1
7828 10437 10438 1
7829 10437 10439 1
7830 10437 10440 1
7831 10441 10442 1
7832 10441 10443 1
7833 10441 10444 1
7834 10445 10446 1
7835 10445 10447 1
7836 10445 10448 1
7837 10449 10450 1
7838 10449 10451 1
7839 10449 10452 1
7840 10453 10454 1
7841 10453 10455 1
7842 10453 10456 1
7843 10457 10458 1
7844 10457 10459 1
7845 10457 10460 1
7846 10461 10462 1
7847 10461 10463 1
7848 10461 10464 1
7849 10465 10466 1
7850 10465 10467 1
7851 10465 10468 1
7852 10469 10470 1
7853 10469 10471 1
7854 10469 10472 1
7855 10473 10474 1
7856 10473 10475 1
7857 10473 10476 1
7858 10477 10478 1
7859 10477 10479 1
7860 10477 10480 1
7861 10481 10482 1
7862 10481 10483 1
7863 10481 10484 1
7864 10485 10486 1
7865 10485 10487 1
7866 10485 10488 1
7867 10489 10491 1
7868 10489 10492 1
7869 10489 10490 1
7870 10493 10494 1
7871 10493 10495 1
7872 10493 10496 1
7873 10497 10498 1
7874 10497 10499 1
7875 10497 10500 1
7876 10501 10502 1
7877 10501 10503 1
7878 10501 10504 1
7879 10505 10506 1
7880 10505 10507 1
7881 10505 10508 1
7882 10509 10510 1
7883 10509 10511 1
7884 10509 10512 1
7885 10513 10514 1
7886 10513 10515 1
7887 10513 10516 1
7888 10517 10518 1
7889 10517 10519 1
7890 10517 10520 1
7891 10521 10522 1
7892 10521 10523 1
7893 10521 10524 1
7894 10525 10526 1
7895 10525 10527 1
7896 10525 10528 1
7897 10529 10530 1
7898 10529 10531 1
7899 10529 10532 1
7900 10533 10534 1
7901 10533 10535 1
7902 10533 10536 1
7903 10537 10538 1
7904 10537 10539 1
7905 10537 10540 1
7906 10541 10542 1
7907 10541 10543 1
7908 10541 10544 1
7909 10545 10546 1
7910 10545 10547 1
7911 10545 10548 1
7912 10549 10550 1
7913 10549 10551 1
7914 10549 10552 1
7915 10553 10554 1
7916 10553 10555 1
7917 10553 10556 1
7918 10557 10558 1
7919 10557 10559 1
7920 10557 10560 1
7921 10561 10562 1
7922 10561 10563 1
7923 10561 10564 1
7924 10565 10566 1
7925 10565 10567 1
7926 10565 10568 1
7927 10569 10570 1
7928 10569 10571 1
7929 10569 10572 1
7930 10573 10574 1
7931 10573 10575 1
7932 10573 10576 1
7933 10577 10578 1
7934 10577 10579 1
7935 10577 10580 1
7936 10581 10582 1
7937 10581 10583 1
7938 10581 10584 1
7939 10585 10586 1
7940 10585 10587 1
7941 10585 10588 1
7942 10589 10590 1
7943 10589 10591 1
7944 10589 10592 1
7945 10593 10594 1
7946 10593 10595 1
7947 10593 10596 1
7948 10597 10598 1
7949 10597 10599 1
7950 10597 10600 1
7951 10601 10602 1
7952 10601 10603 1
7953 10601 10604 1
7954 10605 10606 1
7955 10605 10607 1
7956 10605 10608 1
7957 10609 10610 1
7958 10609 10611 1
7959 10609 10612 1
7960 10613 10614 1
7961 10613 10615 1
7962 10613 10616 1
7963 10617 10618 1
7964 10617 10619 1
7965 10617 10620 1
7966 10621 10622 1
7967 10621 10623 1
7968 10621 10624 1
7969 10625 10626 1
7970 10625 10627 1
7971 10625 10628 1
7972 10629 10630 1
7973 10629 10631 1
7974 10629 10632 1
7975 10633 10634 1
7976 10633 10635 1
7977 10633 10636 1
7978 10637 10638 1
7979 10637 10639 1
7980 10637 10640 1
7981 10641 10642 1
7982 10641 10643 1
7983 10641 10644 1
7984 10645 10646 1
7985 10645 10647 1
7986 10645 10648 1
7987 10649 10650 1
7988 10649 10651 1
7989 10649 10652 1
7990 10653 10654 1
7991 10653 10655 1
7992 10653 10656 1
7993 10657 10658 1
7994 10657 10659 1
7995 10657 10660 1
7996 10661 10662 1
7997 10661 10663 1
7998 10661 10664 1
7999 10665 10666 1
8000 10665 10667 1
8001 10665 10668 1
8002 10669 10670 1
8003 10669 10671 1
8004 10669 10672 1
8005 10673 10674 1
8006 10673 10675 1
8007 10673 10676 1
8008 10677 10680 1
8009 10677 10679 1
8010 10677 10678 1
8011 10681 10682 1
8012 10681 10683 1
8013 10681 10684 1
8014 10685 10686 1
8015 10685 10687 1
8016 10685 10688 1
8017 10689 10690 1
8018 10689 10691 1
8019 10689 10692 1
8020 10693 10694 1
8021 10693 10695 1
8022 10693 10696 1
8023 10697 10698 1
8024 10697 10699 1
8025 10697 10700 1
8026 10701 10702 1
8027 10701 10703 1
8028 10701 10704 1
8029 10705 10706 1
8030 10705 10707 1
8031 10705 10708 1
8032 10709 10710 1
8033 10709 10711 1
8034 10709 10712 1
8035 10713 10714 1
8036 10713 10715 1
8037 10713 10716 1
8038 10717 10718 1
8039 10717 10719 1
8040 10717 10720 1
8041 10721 10722 1
8042 10721 10723 1
8043 10721 10724 1
8044 10725 10726 1
8045 10725 10727 1
8046 10725 10728 1
8047 10729 10730 1
8048 10729 10731 1
8049 10729 10732 1
8050 10733 10734 1
8051 10733 10735 1
8052 10733 10736 1
8053 10737 10738 1
8054 10737 10739 1
8055 10737 10740 1
8056 10741 10743 1
8057 10741 10744 1
8058 10741 10742 1
8059 10745 10746 1
8060 10745 10747 1
8061 10745 10748 1
8062 10749 10751 1
8063 10749 10752 1
8064 10749 10750 1
8065 10753 10754 1
8066 10753 10755 1
8067 10753 10756 1
8068 10757 10758 1
8069 10757 10759 1
8070 10757 10760 1
8071 10761 10762 1
8072 10761 10763 1
8073 10761 10764 1
8074 10765 10766 1
8075 10765 10767 1
8076 10765 10768 1
8077 10769 10770 1
8078 10769 10772 1
8079 10769 10771 1
8080 10773 10774 1
8081 10773 10775 1
8082 10773 10776 1
8083 10777 10778 1
8084 10777 10779 1
8085 10777 10780 1
8086 10781 10782 1
8087 10781 10783 1
8088 10781 10784 1
8089 10785 10786 1
8090 10785 10787 1
8091 10785 10788 1
8092 10789 10790 1
8093 10789 10791 1
8094 10789 10792 1
8095 10793 10794 1
8096 10793 10795 1
8097 10793 10796 1
8098 10797 10798 1
8099 10797 10799 1
8100 10797 10800 1
8101 10801 10802 1
8102 10801 10803 1
8103 10801 10804 1
8104 10805 10806 1
8105 10805 10807 1
8106 10805 10808 1
8107 10809 10810 1
8108 10809 10811 1
8109 10809 10812 1
8110 10813 10814 1
8111 10813 10815 1
8112 10813 10816 1
8113 10817 10818 1
8114 10817 10819 1
8115 10817 10820 1
8116 10821 10822 1
8117 10821 10823 1
8118 10821 10824 1
8119 10825 10826 1
8120 10825 10827 1
8121 10825 10828 1
8122 10829 10830 1
8123 10829 10831 1
8124 10829 10832 1
8125 10833 10834 1
8126 10833 10835 1
8127 10833 10836 1
8128 10837 10838 1
8129 10837 10839 1
8130 10837 10840 1
8131 10841 10842 1
8132 10841 10843 1
8133 10841 10844 1
8134 10845 10846 1
8135 10845 10847 1
8136 10845 10848 1
8137 10849 10850 1
8138 10849 10851 1
8139 10849 10852 1
8140 10853 10854 1
8141 10853 10855 1
8142 10853 10856 1
8143 10857 10858 1
8144 10857 10859 1
8145 10857 10860 1
8146 10861 10862 1
8147 10861 10863 1
8148 10861 10864 1
8149 10865 10866 1
8150 10865 10867 1
8151 10865 10868 1
8152 10869 10870 1
8153 10869 10871 1
8154 10869 10872 1
8155 10873 10874 1
8156 10873 10875 1
8157 10873 10876 1
8158 10877 10878 1
8159 10877 10879 1
8160 10877 10880 1
8161 10881 10882 1
8162 10881 10883 1
8163 10881 10884 1
8164 10885 10886 1
8165 10885 10887 1
8166 10885 10888 1
8167 10889 10890 1
8168 10889 10891 1
8169 10889 10892 1
8170 10893 10894 1
8171 10893 10895 1
8172 10893 10896 1
8173 10897 10898 1
8174 10897 10899 1
8175 10897 10900 1
8176 10901 10902 1
8177 10901 10903 1
8178 10901 10904 1
8179 10905 10906 1
8180 10905 10907 1
8181 10905 10908 1
8182 10909 10910 1
8183 10909 10911 1
8184 10909 10912 1
8185 10913 10914 1
8186 10913 10915 1
8187 10913 10916 1
8188 10917 10918 1
8189 10917 10919 1
8190 10917 10920 1
8191 10921 10922 1
8192 10921 10923 1
8193 10921 10924 1
8194 10925 10926 1
8195 10925 10927 1
8196 10925 10928 1
8197 10929 10932 1
8198 10929 10930 1
8199 10929 10931 1
8200 10933 10934 1
8201 10933 10935 1
8202 10933 10936 1
8203 10937 10938 1
8204 10937 10939 1
8205 10937 10940 1
8206 10941 10942 1
8207 10941 10943 1
8208 10941 10944 1
8209 10945 10946 1
8210 10945 10947 1
8211 10945 10948 1
8212 10949 10950 1
8213 10949 10951 1
8214 10949 10952 1
8215 10953 10954 1
8216 10953 10955 1
8217 10953 10956 1
8218 10957 10958 1
8219 10957 10959 1
8220 10957 10960 1
8221 10961 10962 1
8222 10961 10963 1
8223 10961 10964 1
8224 10965 10966 1
8225 10965 10967 1
8226 10965 10968 1
8227 10969 10970 1
8228 10969 10971 1
8229 10969 10972 1
8230 10973 10974 1
8231 10973 10975 1
8232 10973 10976 1
8233 10977 10978 1
8234 10977 10979 1
8235 10977 10980 1
8236 10981 10982 1
8237 10981 10983 1
8238 10981 10984 1
8239 10985 10986 1
8240 10985 10987 1
8241 10985 10988 1
8242 10989 10990 1
8243 10989 10991 1
8244 10989 10992 1
8245 10993 10995 1
8246 10993 10996 1
8247 10993 10994 1
8248 10997 10998 1
8249 10997 10999 1
8250 10997 11000 1
8251 11001 11002 1
8252 11001 11003 1
8253 11001 11004 1
8254 11005 11006 1
8255 11005 11007 1
8256 11005 11008 1
8257 11009 11010 1
8258 11009 11011 1
8259 11009 11012 1
8260 11013 11014 1
8261 11013 11015 1
8262 11013 11016 1
8263 11017 11018 1
8264 11017 11019 1
8265 11017 11020 1
8266 11021 11022 1
8267 11021 11023 1
8268 11021 11024 1
8269 11025 11026 1
8270 11025 11027 1
8271 11025 11028 1
8272 11029 11030 1
8273 11029 11031 1
8274 11029 11032 1
8275 11033 11034 1
8276 11033 11035 1
8277 11033 11036 1
8278 11037 11038 1
8279 11037 11039 1
8280 11037 11040 1
8281 11041 11042 1
8282 11041 11043 1
8283 11041 11044 1
8284 11045 11046 1
8285 11045 11047 1
8286 11045 11048 1
8287 11049 11050 1
8288 11049 11051 1
8289 11049 11052 1
8290 11053 11054 1
8291 11053 11055 1
8292 11053 11056 1
8293 11057 11058 1
8294 11057 11059 1
8295 11057 11060 1
8296 11061 11062 1
8297 11061 11063 1
8298 11061 11064 1
8299 11065 11066 1
8300 11065 11067 1
8301 11065 11068 1
8302 11069 11070 1
8303 11069 11071 1
8304 11069 11072 1
8305 11073 11074 1
8306 11073 11075 1
8307 11073 11076 1
8308 11077 11078 1
8309 11077 11079 1
8310 11077 11080 1
8311 11081 11082 1
8312 11081 11083 1
8313 11081 11084 1
8314 11085 11086 1
8315 11085 11087 1
8316 11085 11088 1
8317 11089 11090 1
8318 11089 11091 1
8319 11089 11092 1
8320 11093 11094 1
8321 11093 11095 1
8322 11093 11096 1
8323 11097 11098 1
8324 11097 11099 1
8325 11097 11100 1
8326 11101 11102 1
8327 11101 11103 1
8328 11101 11104 1
8329 11105 11106 1
8330 11105 11107 1
8331 11105 11108 1
8332 11109 11110 1
8333 11109 11111 1
8334 11109 11112 1
8335 11113 11114 1
8336 11113 11115 1
8337 11113 11116 1
8338 11117 11118 1
8339 11117 11119 1
8340 11117 11120 1
8341 11121 11122 1
8342 11121 11123 1
8343 11121 11124 1
8344 11125 11126 1
8345 11125 11127 1
8346 11125 11128 1
8347 11129 11130 1
8348 11129 11131 1
8349 11129 11132 1
8350 11133 11134 1
8351 11133 11135 1
8352 11133 11136 1
8353 11137 11138 1
8354 11137 11139 1
8355 11137 11140 1
8356 11141 11142 1
8357 11141 11143 1
8358 11141 11144 1
8359 11145 11146 1
8360 11145 11147 1
8361 11145 11148 1
8362 11149 11150 1
8363 11149 11151 1
8364 11149 11152 1
8365 11153 11154 1
8366 11153 11155 1
8367 11153 11156 1
8368 11157 11158 1
8369 11157 11159 1
8370 11157 11160 1
8371 11161 11162 1
8372 11161 11163 1
8373 11161 11164 1
8374 11165 11166 1
8375 11165 11167 1
8376 11165 11168 1
8377 11169 11170 1
8378 11169 11171 1
8379 11169 11172 1
8380 11173 11174 1
8381 11173 11175 1
8382 11173 11176 1
8383 11177 11178 1
8384 11177 11179 1
8385 11177 11180 1
8386 11181 11182 1
8387 11181 11183 1
8388 11181 11184 1
8389 11185 11186 1
8390 11185 11187 1
8391 11185 11188 1
8392 11189 11190 1
8393 11189 11191 1
8394 11189 11192 1
8395 11193 11194 1
8396 11193 11195 1
8397 11193 11196 1
8398 11197 11198 1
8399 11197 11199 1
8400 11197 11200 1
8401 11201 11202 1
8402 11201 11203 1
8403 11201 11204 1
8404 11205 11206 1
8405 11205 11207 1
8406 11205 11208 1
8407 11209 11210 1
8408 11209 11211 1
8409 11209 11212 1
8410 11213 11214 1
8411 11213 11215 1
8412 11213 11216 1
8413 11217 11218 1
8414 11217 11219 1
8415 11217 11220 1
8416 11221 11222 1
8417 11221 11223 1
8418 11221 11224 1
8419 11225 11226 1
8420 11225 11227 1
8421 11225 11228 1
8422 11229 11230 1
8423 11229 11232 1
8424 11229 11231 1
8425 11233 11234 1
8426 11233 11235 1
8427 11233 11236 1
8428 11237 11238 1
8429 11237 11239 1
8430 11237 11240 1
8431 11241 11242 1
8432 11241 11243 1
8433 11241 11244 1
8434 11245 11247 1
8435 11245 11248 1
8436 11245 11246 1
8437 11249 11250 1
8438 11249 11251 1
8439 11249 11252 1
8440 11253 11254 1
8441 11253 11255 1
8442 11253 11256 1
8443 11257 11258 1
8444 11257 11259 1
8445 11257 11260 1
8446 11261 11262 1
8447 11261 11263 1
8448 11261 11264 1
8449 11265 11266 1
8450 11265 11267 1
8451 11265 11268 1
8452 11269 11270 1
8453 11269 11271 1
8454 11269 11272 1
8455 11273 11274 1
8456 11273 11275 1
8457 11273 11276 1
8458 11277 11278 1
8459 11277 11279 1
8460 11277 11280 1
8461 11281 11282 1
8462 11281 11283 1
8463 11281 11284 1
8464 11285 11286 1
8465 11285 11287 1
8466 11285 11288 1
8467 11289 11290 1
8468 11289 11291 1
8469 11289 11292 1
8470 11293 11294 1
8471 11293 11295 1
8472 11293 11296 1
8473 11297 11298 1
8474 11297 11299 1
8475 11297 11300 1
8476 11301 11302 1
8477 11301 11303 1
8478 11301 11304 1
8479 11305 11306 1
8480 11305 11307 1
8481 11305 11308 1
8482 11309 11310 1
8483 11309 11311 1
8484 11309 11312 1
8485 11313 11314 1
8486 11313 11315 1
8487 11313 11316 1
8488 11317 11318 1
8489 11317 11319 1
8490 11317 11320 1
8491 11321 11322 1
8492 11321 11323 1
8493 11321 11324 1
8494 11325 11326 1
8495 11325 11327 1
8496 11325 11328 1
8497 11329 11330 1
8498 11329 11331 1
8499 11329 11332 1
8500 11333 11335 1
8501 11333 11336 1
8502 11333 11334 1
8503 11337 11338 1
8504 11337 11339 1
8505 11337 11340 1
8506 11341 11342 1
8507 11341 11343 1
8508 11341 11344 1
8509 11345 11346 1
8510 11345 11347 1
8511 11345 11348 1
8512 11349 11350 1
8513 11349 11351 1
8514 11349 11352 1
8515 11353 11354 1
8516 11353 11355 1
8517 11353 11356 1
8518 11357 11358 1
8519 11357 11359 1
8520 11357 11360 1
8521 11361 11362 1
8522 11361 11363 1
8523 11361 11364 1
8524 11365 11366 1
8525 11365 11367 1
8526 11365 11368 1
8527 11369 11370 1
8528 11369 11371 1
8529 11369 11372 1
8530 11373 11374 1
8531 11373 11375 1
8532 11373 11376 1
8533 11377 11379 1
8534 11377 11380 1
8535 11377 11378 1
8536 11381 11382 1
8537 11381 11383 1
8538 11381 11384 1
8539 11385 11386 1
8540 11385 11387 1
8541 11385 11388 1
8542 11389 11390 1
8543 11389 11391 1
8544 11389 11392 1
8545 11393 11394 1
8546 11393 11395 1
8547 11393 11396 1
8548 11397 11398 1
8549 11397 11399 1
8550 11397 11400 1
8551 11401 11402 1
8552 11401 11403 1
8553 11401 11404 1
8554 11405 11406 1
8555 11405 11407 1
8556 11405 11408 1
8557 11409 11410 1
8558 11409 11411 1
8559 11409 11412 1
8560 11413 11414 1
8561 11413 11415 1
8562 11413 11416 1
8563 11417 11418 1
8564 11417 11419 1
8565 11417 11420 1
8566 11421 11422 1
8567 11421 11423 1
8568 11421 11424 1
8569 11425 11426 1
8570 11425 11427 1
8571 11425 11428 1
8572 11429 11430 1
8573 11429 11431 1
8574 11429 11432 1
8575 11433 11436 1
8576 11433 11434 1
8577 11433 11435 1
8578 11437 11438 1
8579 11437 11439 1
8580 11437 11440 1
8581 11441 11442 1
8582 11441 11443 1
8583 11441 11444 1
8584 11445 11446 1
8585 11445 11447 1
8586 11445 11448 1
8587 11449 11450 1
8588 11449 11451 1
8589 11449 11452 1
8590 11453 11454 1
8591 11453 11455 1
8592 11453 11456 1
8593 11457 11458 1
8594 11457 11459 1
8595 11457 11460 1
8596 11461 11462 1
8597 11461 11463 1
8598 11461 11464 1
8599 11465 11466 1
8600 11465 11467 1
8601 11465 11468 1
8602 11469 11470 1
8603 11469 11471 1
8604 11469 11472 1
8605 11473 11474 1
8606 11473 11475 1
8607 11473 11476 1
8608 11477 11478 1
8609 11477 11479 1
8610 11477 11480 1
8611 11481 11482 1
8612 11481 11483 1
8613 11481 11484 1
8614 11485 11486 1
8615 11485 11487 1
8616 11485 11488 1
8617 11489 11490 1
8618 11489 11491 1
8619 11489 11492 1
8620 11493 11494 1
8621 11493 11495 1
8622 11493 11496 1
8623 11497 11499 1
8624 11497 11500 1
8625 11497 11498 1
8626 11501 11502 1
8627 11501 11503 1
8628 11501 11504 1
8629 11505 11506 1
8630 11505 11507 1
8631 11505 11508 1
8632 11509 11510 1
8633 11509 11511 1
8634 11509 11512 1
8635 11513 11514 1
8636 11513 11515 1
8637 11513 11516 1
8638 11517 11518 1
8639 11517 11519 1
8640 11517 11520 1
8641 11521 11522 1
8642 11521 11523 1
8643 11521 11524 1
8644 11525 11526 1
8645 11525 11527 1
8646 11525 11528 1
8647 11529 11530 1
8648 11529 11531 1
8649 11529 11532 1
8650 11533 11534 1
8651 11533 11535 1
8652 11533 11536 1
8653 11537 11538 1
8654 11537 11539 1
8655 11537 11540 1
8656 11541 11542 1
8657 11541 11543 1
8658 11541 11544 1
8659 11545 11546 1
8660 11545 11547 1
8661 11545 11548 1
8662 11549 11550 1
8663 11549 11551 1
8664 11549 11552 1
8665 11553 11554 1
8666 11553 11555 1
8667 11553 11556 1
8668 11557 11558 1
8669 11557 11559 1
8670 11557 11560 1
8671 11561 11562 1
8672 11561 11563 1
8673 11561 11564 1
8674 11565 11566 1
8675 11565 11567 1
8676 11565 11568 1
8677 11569 11570 1
8678 11569 11571 1
8679 11569 11572 1
8680 11573 11574 1
8681 11573 11575 1
8682 11573 11576 1
8683 11577 11578 1
8684 11577 11579 1
8685 11577 11580 1
8686 11581 11582 1
8687 11581 11583 1
8688 11581 11584 1
8689 11585 11586 1
8690 11585 11587 1
8691 11585 11588 1
8692 11589 11590 1
8693 11589 11591 1
8694 11589 11592 1
8695 11593 11594 1
8696 11593 11595 1
8697 11593 11596 1
8698 11597 11598 1
8699 11597 11599 1
8700 11597 11600 1
8701 11601 11602 1
8702 11601 11603 1
8703 11601 11604 1
8704 11605 11606 1
8705 11605 11607 1
8706 11605 11608 1
8707 11609 11610 1
8708 11609 11611 1
8709 11609 11612 1
8710 11613 11614 1
8711 11613 11615 1
8712 11613 11616 1
8713 11617 11618 1
8714 11617 11619 1
8715 11617 11620 1
8716 11621 11622 1
8717 11621 11623 1
8718 11621 11624 1
8719 11625 11626 1
8720 11625 11627 1
8721 11625 11628 1
8722 11629 11630 1
8723 11629 11631 1
8724 11629 11632 1
8725 11633 11634 1
8726 11633 11635 1
8727 11633 11636 1
8728 11637 11638 1
8729 11637 11639 1
8730 11637 11640 1
8731 11641 11642 1
8732 11641 11643 1
8733 11641 11644 1
8734 11645 11646 1
8735 11645 11647 1
8736 11645 11648 1
8737 11649 11650 1
8738 11649 11651 1
8739 11649 11652 1
8740 11653 11654 1
8741 11653 11655 1
8742 11653 11656 1
8743 11657 11658 1
8744 11657 11659 1
8745 11657 11660 1
8746 11661 11662 1
8747 11661 11663 1
8748 11661 11664 1
8749 11665 11666 1
8750 11665 11667 1
8751 11665 11668 1
8752 11669 11670 1
8753 11669 11671 1
8754 11669 11672 1
8755 11673 11674 1
8756 11673 11675 1
8757 11673 11676 1
8758 11677 11678 1
8759 11677 11679 1
8760 11677 11680 1
8761 11681 11682 1
8762 11681 11683 1
8763 11681 11684 1
8764 11685 11686 1
8765 11685 11687 1
8766 11685 11688 1
8767 11689 11690 1
8768 11689 11691 1
8769 11689 11692 1
8770 11693 11694 1
8771 11693 11695 1
8772 11693 11696 1
8773 11697 11698 1
8774 11697 11699 1
8775 11697 11700 1
8776 11701 11702 1
8777 11701 11703 1
8778 11701 11704 1
8779 11705 11706 1
8780 11705 11707 1
8781 11705 11708 1
8782 11709 11710 1
8783 11709 11711 1
8784 11709 11712 1
8785 11713 11714 1
8786 11713 11715 1
8787 11713 11716 1
8788 11717 11718 1
8789 11717 11719 1
8790 11717 11720 1
8791 11721 11722 1
8792 11721 11723 1
8793 11721 11724 1
8794 11725 11726 1
8795 11725 11727 1
8796 11725 11728 1
8797 11729 11730 1
8798 11729 11731 1
8799 11729 11732 1
8800 11733 11734 1
8801 11733 11735 1
8802 11733 11736 1
8803 11737 11738 1
8804 11737 11739 1
8805 11737 11740 1
8806 11741 11742 1
8807 11741 11743 1
8808 11741 11744 1
8809 11745 11746 1
8810 11745 11747 1
8811 11745 11748 1
8812 11749 11751 1
8813 11749 11752 1
8814 11749 11750 1
8815 11753 11754 1
8816 11753 11755 1
8817 11753 11756 1
8818 11757 11758 1
8819 11757 11759 1
8820 11757 11760 1
8821 11761 11762 1
8822 11761 11763 1
8823 11761 11764 1
8824 11765 11766 1
8825 11765 11767 1
8826 11765 11768 1
8827 11769 11770 1
8828 11769 11771 1
8829 11769 11772 1
8830 11773 11774 1
8831 11773 11775 1
8832 11773 11776 1
8833 11777 11778 1
8834 11777 11779 1
8835 11777 11780 1
8836 11781 11782 1
8837 11781 11783 1
8838 11781 11784 1
8839 11785 11786 1
8840 11785 11787 1
8841 11785 11788 1
8842 11789 11790 1
8843 11789 11791 1
8844 11789 11792 1
8845 11793 11794 1
8846 11793 11795 1
8847 11793 11796 1
8848 11797 11798 1
8849 11797 11799 1
8850 11797 11800 1
8851 11801 11802 1
8852 11801 11803 1
8853 11801 11804 1
8854 11805 11806 1
8855 11805 11807 1
8856 11805 11808 1
8857 11809 11810 1
8858 11809 11811 1
8859 11809 11812 1
8860 11813 11814 1
8861 11813 11815 1
8862 11813 11816 1
8863 11817 11818 1
8864 11817 11819 1
8865 11817 11820 1
8866 11821 11822 1
8867 11821 11823 1
8868 11821 11824 1
8869 11825 11826 1
8870 11825 11827 1
8871 11825 11828 1
8872 11829 11830 1
8873 11829 11831 1
8874 11829 11832 1
8875 11833 11834 1
8876 11833 11835 1
8877 11833 11836 1
8878 11837 11838 1
8879 11837 11839 1
8880 11837 11840 1
8881 11841 11842 1
8882 11841 11843 1
8883 11841 11844 1
8884 11845 11846 1
8885 11845 11847 1
8886 11845 11848 1
8887 11849 11850 1
8888 11849 11851 1
8889 11849 11852 1
8890 11853 11854 1
8891 11853 11855 1
8892 11853 11856 1
8893 11857 11858 1
8894 11857 11859 1
8895 11857 11860 1
8896 11861 11862 1
8897 11861 11863 1
8898 11861 11864 1
8899 11865 11866 1
8900 11865 11867 1
8901 11865 11868 1
8902 11869 11870 1
8903 11869 11871 1
8904 11869 11872 1
8905 11873 11874 1
8906 11873 11875 1
8907 11873 11876 1
8908 11877 11878 1
8909 11877 11879 1
8910 11877 11880 1
8911 11881 11882 1
8912 11881 11883 1
8913 11881 11884 1
8914 11885 11886 1
8915 11885 11887 1
8916 11885 11888 1
8917 11889 11890 1
8918 11889 11891 1
8919 11889 11892 1
8920 11893 11894 1
8921 11893 11895 1
8922 11893 11896 1
8923 11897 11898 1
8924 11897 11899 1
8925 11897 11900 1
8926 11901 11902 1
8927 11901 11903 1
8928 11901 11904 1
8929 11905 11906 1
8930 11905 11907 1
8931 11905 11908 1
8932 11909 11910 1
8933 11909 11911 1
8934 11909 11912 1
8935 11913 11914 1
8936 11913 11915 1
8937 11913 11916 1
8938 11917 11918 1
8939 11917 11919 1
8940 11917 11920 1
8941 11921 11922 1
8942 11921 11923 1
8943 11921 11924 1
8944 11925 11926 1
8945 11925 11927 1
8946 11925 11928 1
8947 11929 11930 1
8948 11929 11931 1
8949 11929 11932 1
8950 11933 11934 1
8951 11933 11935 1
8952 11933 11936 1
8953 11937 11940 1
8954 11937 11938 1
8955 11937 11939 1
8956 11941 11942 1
8957 11941 11943 1
8958 11941 11944 1
8959 11945 11946 1
8960 11945 11947 1
8961 11945 11948 1
8962 11949 11950 1
8963 11949 11951 1
8964 11949 11952 1
8965 11953 11954 1
8966 11953 11955 1
8967 11953 11956 1
8968 11957 11958 1
8969 11957 11959 1
8970 11957 11960 1
8971 11961 11962 1
8972 11961 11963 1
8973 11961 11964 1
8974 11965 11966 1
8975 11965 11967 1
8976 11965 11968 1
8977 11969 11970 1
8978 11969 11971 1
8979 11969 11972 1
8980 11973 11974 1
8981 11973 11975 1
8982 11973 11976 1
8983 11977 11978 1
8984 11977 11979 1
8985 11977 11980 1
8986 11981 11982 1
8987 11981 11983 1
8988 11981 11984 1
8989 11985 11986 1
8990 11985 11987 1
8991 11985 11988 1
8992 11989 11990 1
8993 11989 11991 1
8994 11989 11992 1
8995 11993 11994 1
8996 11993 11995 1
8997 11993 11996 1
8998 11997 11998 1
8999 11997 11999 1
9000 11997 12000 1
9001 12001 12003 1
9002 12001 12004 1
9003 12001 12002 1
9004 12005 12006 1
9005 12005 12007 1
9006 12005 12008 1
9007 12009 12010 1
9008 12009 12011 1
9009 12009 12012 1
9010 12013 12014 1
9011 12013 12015 1
9012 12013 12016 1
9013 12017 12018 1
9014 12017 12019 1
9015 12017 12020 1
9016 12021 12022 1
9017 12021 12023 1
9018 12021 12024 1
9019 12025 12026 1
9020 12025 12027 1
9021 12025 12028 1
9022 12029 12030 1
9023 12029 12031 1
9024 12029 12032 1
9025 12033 12034 1
9026 12033 12035 1
9027 12033 12036 1
9028 12037 12038 1
9029 12037 12039 1
9030 12037 12040 1
9031 12041 12042 1
9032 12041 12043 1
9033 12041 12044 1
9034 12045 12046 1
9035 12045 12047 1
9036 12045 12048 1
9037 12049 12050 1
9038 12049 12051 1
9039 12049 12052 1
9040 12053 12054 1
9041 12053 12055 1
9042 12053 12056 1
9043 12057 12058 1
9044 12057 12059 1
9045 12057 12060 1
9046 12061 12062 1
9047 12061 12063 1
9048 12061 12064 1
9049 12065 12067 1
9050 12065 12066 1
9051 12065 12068 1
9052 12069 12070 1
9053 12069 12071 1
9054 12069 12072 1
9055 12073 12074 1
9056 12073 12075 1
9057 12073 12076 1
9058 12077 12078 1
9059 12077 12079 1
9060 12077 12080 1
9061 12081 12082 1
9062 12081 12083 1
9063 12081 12084 1
9064 12085 12086 1
9065 12085 12087 1
9066 12085 12088 1
9067 12089 12090 1
9068 12089 12091 1
9069 12089 12092 1
9070 12093 12094 1
9071 12093 12095 1
9072 12093 12096 1
9073 12097 12098 1
9074 12097 12099 1
9075 12097 12100 1
9076 12101 12102 1
9077 12101 12103 1
9078 12101 12104 1
9079 12105 12106 1
9080 12105 12107 1
9081 12105 12108 1
9082 12109 12110 1
9083 12109 12111 1
9084 12109 12112 1
9085 12113 12114 1
9086 12113 12115 1
9087 12113 12116 1
9088 12117 12118 1
9089 12117 12119 1
9090 12117 12120 1
9091 12121 12122 1
9092 12121 12123 1
9093 12121 12124 1
9094 12125 12126 1
9095 12125 12127 1
9096 12125 12128 1
9097 12129 12130 1
9098 12129 12131 1
9099 12129 12132 1
9100 12133 12134 1
9101 12133 12135 1
9102 12133 12136 1
9103 12137 12138 1
9104 12137 12139 1
9105 12137 12140 1
9106 12141 12142 1
9107 12141 12143 1
9108 12141 12144 1
9109 12145 12146 1
9110 12145 12147 1
9111 12145 12148 1
9112 12149 12150 1
9113 12149 12151 1
9114 12149 12152 1
9115 12153 12154 1
9116 12153 12156 1
9117 12153 12155 1
9118 12157 12158 1
9119 12157 12159 1
9120 12157 12160 1
9121 12161 12162 1
9122 12161 12163 1
9123 12161 12164 1
9124 12165 12166 1
9125 12165 12167 1
9126 12165 12168 1
9127 12169 12170 1
9128 12169 12171 1
9129 12169 12172 1
9130 12173 12174 1
9131 12173 12175 1
9132 12173 12176 1
9133 12177 12178 1
9134 12177 12179 1
9135 12177 12180 1
9136 12181 12182 1
9137 12181 12183 1
9138 12181 12184 1
9139 12185 12186 1
9140 12185 12187 1
9141 12185 12188 1
9142 12189 12190 1
9143 12189 12191 1
9144 12189 12192 1
9145 12193 12194 1
9146 12193 12195 1
9147 12193 12196 1
9148 12197 12198 1
9149 12197 12199 1
9150 12197 12200 1
9151 12201 12202 1
9152 12201 12203 1
9153 12201 12204 1
9154 12205 12206 1
9155 12205 12207 1
9156 12205 12208 1
9157 12209 12210 1
9158 12209 12211 1
9159 12209 12212 1
9160 12213 12214 1
9161 12213 12215 1
9162 12213 12216 1
9163 12217 12218 1
9164 12217 12219 1
9165 12217 12220 1
9166 12221 12222 1
9167 12221 12223 1
9168 12221 12224 1
9169 12225 12226 1
9170 12225 12227 1
9171 12225 12228 1
9172 12229 12230 1
9173 12229 12231 1
9174 12229 12232 1
9175 12233 12234 1
9176 12233 12235 1
9177 12233 12236 1
9178 12237 12238 1
9179 12237 12239 1
9180 12237 12240 1
9181 12241 12242 1
9182 12241 12243 1
9183 12241 12244 1
9184 12245 12246 1
9185 12245 12247 1
9186 12245 12248 1
9187 12249 12250 1
9188 12249 12251 1
9189 12249 12252 1
9190 12253 12255 1
9191 12253 12256 1
9192 12253 12254 1
9193 12257 12258 1
9194 12257 12259 1
9195 12257 12260 1
9196 12261 12262 1
9197 12261 12263 1
9198 12261 12264 1
9199 12265 12266 1
9200 12265 12267 1
9201 12265 12268 1
9202 12269 12270 1
9203 12269 12271 1
9204 12269 12272 1
9205 12273 12274 1
9206 12273 12275 1
9207 12273 12276 1
9208 12277 12278 1
9209 12277 12279 1
9210 12277 12280 1
9211 12281 12282 1
9212 12281 12283 1
9213 12281 12284 1
9214 12285 12286 1
9215 12285 12287 1
9216 12285 12288 1
9217 12289 12290 1
9218 12289 12291 1
9219 12289 12292 1
9220 12293 12294 1
9221 12293 12295 1
9222 12293 12296 1
9223 12297 12298 1
9224 12297 12299 1
9225 12297 12300 1
9226 12301 12302 1
9227 12301 12303 1
9228 12301 12304 1
9229 12305 12306 1
9230 12305 12307 1
9231 12305 12308 1
9232 12309 12310 1
9233 12309 12311 1
9234 12309 12312 1
9235 12313 12314 1
9236 12313 12315 1
9237 12313 12316 1
9238 12317 12318 1
9239 12317 12319 1
9240 12317 12320 1
9241 12321 12322 1
9242 12321 12323 1
9243 12321 12324 1
9244 12325 12326 1
9245 12325 12327 1
9246 12325 12328 1
9247 12329 12330 1
9248 12329 12331 1
9249 12329 12332 1
9250 12333 12334 1
9251 12333 12335 1
9252 12333 12336 1
9253 12337 12338 1
9254 12337 12339 1
9255 12337 12340 1
9256 12341 12342 1
9257 12341 12343 1
9258 12341 12344 1
9259 12345 12346 1
9260 12345 12347 1
9261 12345 12348 1
9262 12349 12350 1
9263 12349 12351 1
9264 12349 12352 1
9265 12353 12354 1
9266 12353 12355 1
9267 12353 12356 1
9268 12357 12358 1
9269 12357 12359 1
9270 12357 12360 1
9271 12361 12362 1
9272 12361 12363 1
9273 12361 12364 1
9274 12365 12366 1
9275 12365 12367 1
9276 12365 12368 1
9277 12369 12370 1
9278 12369 12371 1
9279 12369 12372 1
9280 12373 12374 1
9281 12373 12375 1
9282 12373 12376 1
9283 12377 12378 1
9284 12377 12379 1
9285 12377 12380 1
9286 12381 12382 1
9287 12381 12383 1
9288 12381 12384 1
9289 12385 12386 1
9290 12385 12387 1
9291 12385 12388 1
9292 12389 12390 1
9293 12389 12391 1
9294 12389 12392 1
9295 12393 12394 1
9296 12393 12395 1
9297 12393 12396 1
9298 12397 12398 1
9299 12397 12399 1
9300 12397 12400 1
9301 12401 12402 1
9302 12401 12403 1
9303 12401 12404 1
9304 12405 12406 1
9305 12405 12407 1
9306 12405 12408 1
9307 12409 12410 1
9308 12409 12411 1
9309 12409 12412 1
9310 12413 12414 1
9311 12413 12415 1
9312 12413 12416 1
9313 12417 12418 1
9314 12417 12419 1
9315 12417 12420 1
9316 12421 12422 1
9317 12421 12423 1
9318 12421 12424 1
9319 12425 12426 1
9320 12425 12427 1
9321 12425 12428 1
9322 12429 12430 1
9323 12429 12431 1
9324 12429 12432 1
9325 12433 12434 1
9326 12433 12435 1
9327 12433 12436 1
9328 12437 12438 1
9329 12437 12439 1
9330 12437 12440 1
9331 12441 12444 1
9332 12441 12442 1
9333 12441 12443 1
9334 12445 12446 1
9335 12445 12447 1
9336 12445 12448 1
9337 12449 12450 1
9338 12449 12451 1
9339 12449 12452 1
9340 12453 12454 1
9341 12453 12455 1
9342 12453 12456 1
9343 12457 12458 1
9344 12457 12459 1
9345 12457 12460 1
9346 12461 12462 1
9347 12461 12463 1
9348 12461 12464 1
9349 12465 12466 1
9350 12465 12467 1
9351 12465 12468 1
9352 12469 12470 1
9353 12469 12471 1
9354 12469 12472 1
9355 12473 12474 1
9356 12473 12475 1
9357 12473 12476 1
9358 12477 12478 1
9359 12477 12479 1
9360 12477 12480 1
9361 12481 12482 1
9362 12481 12483 1
9363 12481 12484 1
9364 12485 12486 1
9365 12485 12487 1
9366 12485 12488 1
9367 12489 12490 1
9368 12489 12491 1
9369 12489 12492 1
9370 12493 12494 1
9371 12493 12495 1
9372 12493 12496 1
9373 12497 12498 1
9374 12497 12499 1
9375 12497 12500 1
9376 12501 12502 1
9377 12501 12503 1
9378 12501 12504 1
9379 12505 12507 1
9380 12505 12508 1
9381 12505 12506 1
9382 12509 12510 1
9383 12509 12511 1
9384 12509 12512 1
9385 12513 12514 1
9386 12513 12515 1
9387 12513 12516 1
9388 12517 12518 1
9389 12517 12519 1
9390 12517 12520 1
9391 12521 12522 1
9392 12521 12523 1
9393 12521 12524 1
9394 12525 12526 1
9395 12525 12527 1
9396 12525 12528 1
9397 12529 12530 1
9398 12529 12531 1
9399 12529 12532 1
9400 12533 12534 1
9401 12533 12535 1
9402 12533 12536 1
9403 12537 12538 1
9404 12537 12539 1
9405 12537 12540 1
9406 12541 12542 1
9407 12541 12543 1
9408 12541 12544 1
9409 12545 12546 1
9410 12545 12547 1
9411 12545 12548 1
9412 12549 12550 1
9413 12549 12551 1
9414 12549 12552 1
9415 12553 12554 1
9416 12553 12555 1
9417 12553 12556 1
9418 12557 12558 1
9419 12557 12559 1
9420 12557 12560 1
9421 12561 12562 1
9422 12561 12563 1
9423 12561 12564 1
9424 12565 12566 1
9425 12565 12567 1
9426 12565 12568 1
9427 12569 12570 1
9428 12569 12571 1
9429 12569 12572 1
9430 12573 12574 1
9431 12573 12575 1
9432 12573 12576 1
9433 12577 12578 1
9434 12577 12579 1
9435 12577 12580 1
9436 12581 12582 1
9437 12581 12583 1
9438 12581 12584 1
9439 12585 12586 1
9440 12585 12587 1
9441 12585 12588 1
9442 12589 12590 1
9443 12589 12591 1
9444 12589 12592 1
9445 12593 12594 1
9446 12593 12595 1
9447 12593 12596 1
9448 12597 12598 1
9449 12597 12599 1
9450 12597 12600 1
9451 12601 12602 1
9452 12601 12603 1
9453 12601 12604 1
9454 12605 12606 1
9455 12605 12607 1
9456 12605 12608 1
9457 12609 12610 1
9458 12609 12611 1
9459 12609 12612 1
9460 12613 12614 1
9461 12613 12615 1
9462 12613 12616 1
9463 12617 12618 1
9464 12617 12619 1
9465 12617 12620 1
9466 12621 12622 1
9467 12621 12623 1
9468 12621 12624 1
9469 12625 12626 1
9470 12625 12627 1
9471 12625 12628 1
9472 12629 12630 1
9473 12629 12631 1
9474 12629 12632 1
9475 12633 12634 1
9476 12633 12635 1
9477 12633 12636 1
9478 12637 12638 1
9479 12637 12639 1
9480 12637 12640 1
9481 12641 12642 1
9482 12641 12643 1
9483 12641 12644 1
9484 12645 12646 1
9485 12645 12647 1
9486 12645 12648 1
9487 12649 12650 1
9488 12649 12651 1
9489 12649 12652 1
9490 12653 12654 1
9491 12653 12655 1
9492 12653 12656 1
9493 12657 12658 1
9494 12657 12659 1
9495 12657 12660 1
9496 12661 12662 1
9497 12661 12663 1
9498 12661 12664 1
9499 12665 12666 1
9500 12665 12667 1
9501 12665 12668 1
9502 12669 12670 1
9503 12669 12671 1
9504 12669 12672 1
9505 12673 12674 1
9506 12673 12675 1
9507 12673 12676 1
9508 12677 12678 1
9509 12677 12679 1
9510 12677 12680 1
9511 12681 12682 1
9512 12681 12683 1
9513 12681 12684 1
9514 12685 12686 1
9515 12685 12687 1
9516 12685 12688 1
9517 12689 12690 1
9518 12689 12691 1
9519 12689 12692 1
9520 12693 12694 1
9521 12693 12695 1
9522 12693 12696 1
9523 12697 12698 1
9524 12697 12699 1
9525 12697 12700 1
9526 12701 12702 1
9527 12701 12703 1
9528 12701 12704 1
9529 12705 12706 1
9530 12705 12707 1
9531 12705 12708 1
9532 12709 12710 1
9533 12709 12711 1
9534 12709 12712 1
9535 12713 12714 1
9536 12713 12715 1
9537 12713 12716 1
9538 12717 12718 1
9539 12717 12719 1
9540 12717 12720 1
9541 12721 12722 1
9542 12721 12723 1
9543 12721 12724 1
9544 12725 12726 1
9545 12725 12727 1
9546 12725 12728 1
9547 12729 12730 1
9548 12729 12731 1
9549 12729 12732 1
9550 12733 12734 1
9551 12733 12735 1
9552 12733 12736 1
9553 12737 12738 1
9554 12737 12739 1
9555 12737 12740 1
9556 12741 12742 1
9557 12741 12743 1
9558 12741 12744 1
9559 12745 12746 1
9560 12745 12747 1
9561 12745 12748 1
9562 12749 12750 1
9563 12749 12751 1
9564 12749 12752 1
9565 12753 12754 1
9566 12753 12755 1
9567 12753 12756 1
9568 12757 12759 1
9569 12757 12760 1
9570 12757 12758 1
9571 12761 12762 1
9572 12761 12763 1
9573 12761 12764 1
9574 12765 12766 1
9575 12765 12767 1
9576 12765 12768 1
9577 12769 12770 1
9578 12769 12771 1
9579 12769 12772 1
9580 12773 12774 1
9581 12773 12775 1
9582 12773 12776 1
9583 12777 12778 1
9584 12777 12779 1
9585 12777 12780 1
9586 12781 12782 1
9587 12781 12783 1
9588 12781 12784 1
9589 12785 12786 1
9590 12785 12787 1
9591 12785 12788 1
9592 12789 12790 1
9593 12789 12791 1
9594 12789 12792 1
9595 12793 12794 1
9596 12793 12795 1
9597 12793 12796 1
9598 12797 12798 1
9599 12797 12799 1
9600 12797 12800 1
9601 12801 12802 1
9602 12801 12803 1
9603 12801 12804 1
9604 12805 12806 1
9605 12805 12807 1
9606 12805 12808 1
9607 12809 12810 1
9608 12809 12811 1
9609 12809 12812 1
9610 12813 12814 1
9611 12813 12815 1
9612 12813 12816 1
9613 12817 12818 1
9614 12817 12819 1
9615 12817 12820 1
9616 12821 12822 1
9617 12821 12823 1
9618 12821 12824 1
9619 12825 12826 1
9620 12825 12827 1
9621 12825 12828 1
9622 12829 12830 1
9623 12829 12831 1
9624 12829 12832 1
9625 12833 12834 1
9626 12833 12835 1
9627 12833 12836 1
9628 12837 12838 1
9629 12837 12839 1
9630 12837 12840 1
9631 12841 12842 1
9632 12841 12843 1
9633 12841 12844 1
9634 12845 12847 1
9635 12845 12848 1
9636 12845 12846 1
9637 12849 12850 1
9638 12849 12851 1
9639 12849 12852 1
9640 12853 12854 1
9641 12853 12855 1
9642 12853 12856 1
9643 12857 12858 1
9644 12857 12859 1
9645 12857 12860 1
9646 12861 12862 1
9647 12861 12863 1
9648 12861 12864 1
9649 12865 12866 1
9650 12865 12867 1
9651 12865 12868 1
9652 12869 12870 1
9653 12869 12871 1
9654 12869 12872 1
9655 12873 12874 1
9656 12873 12875 1
9657 12873 12876 1
9658 12877 12878 1
9659 12877 12879 1
9660 12877 12880 1
9661 12881 12882 1
9662 12881 12883 1
9663 12881 12884 1
9664 12885 12886 1
9665 12885 12887 1
9666 12885 12888 1
9667 12889 12890 1
9668 12889 12891 1
9669 12889 12892 1
9670 12893 12894 1
9671 12893 12895 1
9672 12893 12896 1
9673 12897 12898 1
9674 12897 12899 1
9675 12897 12900 1
9676 12901 12902 1
9677 12901 12903 1
9678 12901 12904 1
9679 12905 12906 1
9680 12905 12907 1
9681 12905 12908 1
9682 12909 12910 1
9683 12909 12911 1
9684 12909 12912 1
9685 12913 12914 1
9686 12913 12915 1
9687 12913 12916 1
9688 12917 12918 1
9689 12917 12919 1
9690 12917 12920 1
9691 12921 12922 1
9692 12921 12923 1
9693 12921 12924 1
9694 12925 12926 1
9695 12925 12927 1
9696 12925 12928 1
9697 12929 12930 1
9698 12929 12931 1
9699 12929 12932 1
9700 12933 12934 1
9701 12933 12935 1
9702 12933 12936 1
9703 12937 12938 1
9704 12937 12939 1
9705 12937 12940 1
9706 12941 12942 1
9707 12941 12943 1
9708 12941 12944 1
9709 12945 12948 1
9710 12945 12946 1
9711 12945 12947 1
9712 12949 12950 1
9713 12949 12951 1
9714 12949 12952 1
9715 12953 12954 1
9716 12953 12955 1
9717 12953 12956 1
9718 12957 12958 1
9719 12957 12959 1
9720 12957 12960 1
9721 12961 12962 1
9722 12961 12963 1
9723 12961 12964 1
9724 12965 12966 1
9725 12965 12967 1
9726 12965 12968 1
9727 12969 12970 1
9728 12969 12971 1
9729 12969 12972 1
9730 12973 12974 1
9731 12973 12975 1
9732 12973 12976 1
9733 12977 12978 1
9734 12977 12979 1
9735 12977 12980 1
9736 12981 12982 1
9737 12981 12983 1
9738 12981 12984 1
9739 12985 12986 1
9740 12985 12987 1
9741 12985 12988 1
9742 12989 12990 1
9743 12989 12991 1
9744 12989 12992 1
9745 12993 12994 1
9746 12993 12995 1
9747 12993 12996 1
9748 12997 12998 1
9749 12997 12999 1
9750 12997 13000 1
9751 13001 13002 1
9752 13001 13003 1
9753 13001 13004 1
9754 13005 13006 1
9755 13005 13007 1
9756 13005 13008 1
9757 13009 13011 1
9758 13009 13012 1
9759 13009 13010 1
9760 13013 13014 1
9761 13013 13015 1
9762 13013 13016 1
9763 13017 13018 1
9764 13017 13019 1
9765 13017 13020 1
9766 13021 13022 1
9767 13021 13023 1
9768 13021 13024 1
9769 13025 13026 1
9770 13025 13027 1
9771 13025 13028 1
9772 13029 13030 1
9773 13029 13031 1
9774 13029 13032 1
9775 13033 13034 1
9776 13033 13035 1
9777 13033 13036 1
9778 13037 13038 1
9779 13037 13039 1
9780 13037 13040 1
9781 13041 13042 1
9782 13041 13043 1
9783 13041 13044 1
9784 13045 13046 1
9785 13045 13047 1
9786 13045 13048 1
9787 13049 13050 1
9788 13049 13051 1
9789 13049 13052 1
9790 13053 13054 1
9791 13053 13055 1
9792 13053 13056 1
9793 13057 13058 1
9794 13057 13059 1
9795 13057 13060 1
9796 13061 13062 1
9797 13061 13063 1
9798 13061 13064 1
9799 13065 13066 1
9800 13065 13067 1
9801 13065 13068 1
9802 13069 13070 1
9803 13069 13071 1
9804 13069 13072 1
9805 13073 13074 1
9806 13073 13075 1
9807 13073 13076 1
9808 13077 13078 1
9809 13077 13079 1
9810 13077 13080 1
9811 13081 13082 1
9812 13081 13083 1
9813 13081 13084 1
9814 13085 13086 1
9815 13085 13087 1
9816 13085 13088 1
9817 13089 13090 1
9818 13089 13091 1
9819 13089 13092 1
9820 13093 13094 1
9821 13093 13095 1
9822 13093 13096 1
9823 13097 13098 1
9824 13097 13099 1
9825 13097 13100 1
9826 13101 13102 1
9827 13101 13103 1
9828 13101 13104 1
9829 13105 13106 1
9830 13105 13107 1
9831 13105 13108 1
9832 13109 13110 1
9833 13109 13111 1
9834 13109 13112 1
9835 13113 13114 1
9836 13113 13115 1
9837 13113 13116 1
9838 13117 13118 1
9839 13117 13119 1
9840 13117 13120 1
9841 13121 13122 1
9842 13121 13123 1
9843 13121 13124 1
9844 13125 13126 1
9845 13125 13127 1
9846 13125 13128 1
9847 13129 13130 1
9848 13129 13131 1
9849 13129 13132 1
9850 13133 13134 1
9851 13133 13135 1
9852 13133 13136 1
9853 13137 13138 1
9854 13137 13139 1
9855 13137 13140 1
9856 13141 13142 1
9857 13141 13143 1
9858 13141 13144 1
9859 13145 13146 1
9860 13145 13147 1
9861 13145 13148 1
9862 13149 13150 1
9863 13149 13151 1
9864 13149 13152 1
9865 13153 13154 1
9866 13153 13155 1
9867 13153 13156 1
9868 13157 13158 1
9869 13157 13159 1
9870 13157 13160 1
9871 13161 13162 1
9872 13161 13163 1
9873 13161 13164 1
9874 13165 13166 1
9875 13165 13167 1
9876 13165 13168 1
9877 13169 13170 1
9878 13169 13171 1
9879 13169 13172 1
9880 13173 13174 1
9881 13173 13175 1
9882 13173 13176 1
9883 13177 13179 1
9884 13177 13180 1
9885 13177 13178 1
9886 13181 13182 1
9887 13181 13183 1
9888 13181 13184 1
9889 13185 13186 1
9890 13185 13187 1
9891 13185 13188 1
9892 13189 13190 1
9893 13189 13191 1
9894 13189 13192 1
9895 13193 13194 1
9896 13193 13195 1
9897 13193 13196 1
9898 13197 13198 1
9899 13197 13199 1
9900 13197 13200 1
9901 13201 13202 1
9902 13201 13203 1
9903 13201 13204 1
9904 13205 13206 1
9905 13205 13207 1
9906 13205 13208 1
9907 13209 13210 1
9908 13209 13211 1
9909 13209 13212 1
9910 13213 13214 1
9911 13213 13215 1
9912 13213 13216 1
9913 13217 13218 1
9914 13217 13219 1
9915 13217 13220 1
9916 13221 13222 1
9917 13221 13223 1
9918 13221 13224 1
9919 13225 13226 1
9920 13225 13227 1
9921 13225 13228 1
9922 13229 13230 1
9923 13229 13231 1
9924 13229 13232 1
9925 13233 13234 1
9926 13233 13235 1
9927 13233 13236 1
9928 13237 13238 1
9929 13237 13239 1
9930 13237 13240 1
9931 13241 13242 1
9932 13241 13243 1
9933 13241 13244 1
9934 13245 13246 1
9935 13245 13247 1
9936 13245 13248 1
9937 13249 13250 1
9938 13249 13251 1
9939 13249 13252 1
9940 13253 13254 1
9941 13253 13255 1
9942 13253 13256 1
9943 13257 13258 1
9944 13257 13259 1
9945 13257 13260 1
9946 13261 13264 1
9947 13261 13263 1
9948 13261 13262 1
9949 13265 13266 1
9950 13265 13267 1
9951 13265 13268 1
9952 13269 13270 1
9953 13269 13271 1
9954 13269 13272 1
9955 13273 13274 1
9956 13273 13275 1
9957 13273 13276 1
9958 13277 13278 1
9959 13277 13279 1
9960 13277 13280 1
9961 13281 13282 1
9962 13281 13283 1
9963 13281 13284 1
9964 13285 13286 1
9965 13285 13287 1
9966 13285 13288 1
9967 13289 13290 1
9968 13289 13291 1
9969 13289 13292 1
9970 13293 13294 1
9971 13293 13295 1
9972 13293 13296 1
9973 13297 13298 1
9974 13297 13299 1
9975 13297 13300 1
9976 13301 13302 1
9977 13301 13303 1
9978 13301 13304 1
9979 13305 13306 1
9980 13305 13307 1
9981 13305 13308 1
9982 13309 13310 1
9983 13309 13311 1
9984 13309 13312 1
9985 13313 13314 1
9986 13313 13315 1
9987 13313 13316 1
9988 13317 13318 1
9989 13317 13319 1
9990 13317 13320 1
9991 13321 13322 1
9992 13321 13323 1
9993 13321 13324 1
9994 13325 13326 1
9995 13325 13327 1
9996 13325 13328 1
9997 13329 13331 1
9998 13329 13330 1
9999 13329 13332 1
10000 13333 13334 1
10001 13333 13335 1
10002 13333 13336 1
10003 13337 13338 1
10004 13337 13339 1
10005 13337 13340 1
10006 13341 13342 1
10007 13341 13343 1
10008 13341 13344 1
10009 13345 13346 1
10010 13345 13347 1
10011 13345 13348 1
10012 13349 13350 1
10013 13349 13351 1
10014 13349 13352 1
10015 13353 13354 1
10016 13353 13355 1
10017 13353 13356 1
10018 13357 13358 1
10019 13357 13359 1
10020 13357 13360 1
10021 13361 13362 1
10022 13361 13363 1
10023 13361 13364 1
10024 13365 13366 1
10025 13365 13367 1
10026 13365 13368 1
10027 13369 13370 1
10028 13369 13371 1
10029 13369 13372 1
10030 13373 13374 1
10031 13373 13375 1
10032 13373 13376 1
10033 13377 13378 1
10034 13377 13379 1
10035 13377 13380 1
10036 13381 13382 1
10037 13381 13383 1
10038 13381 13384 1
10039 13385 13386 1
10040 13385 13387 1
10041 13385 13388 1
10042 13389 13390 1
10043 13389 13391 1
10044 13389 13392 1
10045 13393 13394 1
10046 13393 13395 1
10047 13393 13396 1
10048 13397 13398 1
10049 13397 13399 1
10050 13397 13400 1
10051 13401 13402 1
10052 13401 13403 1
10053 13401 13404 1
10054 13405 13406 1
10055 13405 13407 1
10056 13405 13408 1
10057 13409 13410 1
10058 13409 13411 1
10059 13409 13412 1
10060 13413 13415 1
10061 13413 13414 1
10062 13413 13416 1
10063 13417 13418 1
10064 13417 13419 1
10065 13417 13420 1
10066 13421 13422 1
10067 13421 13423 1
10068 13421 13424 1
10069 13425 13426 1
10070 13425 13427 1
10071 13425 13428 1
10072 13429 13430 1
10073 13429 13431 1
10074 13429 13432 1
10075 13433 13434 1
10076 13433 13435 1
10077 13433 13436 1
10078 13437 13438 1
10079 13437 13439 1
10080 13437 13440 1
10081 13441 13442 1
10082 13441 13443 1
10083 13441 13444 1
10084 13445 13446 1
10085 13445 13447 1
10086 13445 13448 1
10087 13449 13452 1
10088 13449 13450 1
10089 13449 13451 1
10090 13453 13454 1
10091 13453 13455 1
10092 13453 13456 1
10093 13457 13458 1
10094 13457 13459 1
10095 13457 13460 1
10096 13461 13462 1
10097 13461 13463 1
10098 13461 13464 1
10099 13465 13466 1
10100 13465 13467 1
10101 13465 13468 1
10102 13469 13470 1
10103 13469 13471 1
10104 13469 13472 1
10105 13473 13474 1
10106 13473 13475 1
10107 13473 13476 1
10108 13477 13478 1
10109 13477 13479 1
10110 13477 13480 1
10111 13481 13482 1
10112 13481 13483 1
10113 13481 13484 1
10114 13485 13486 1
10115 13485 13487 1
10116 13485 13488 1
10117 13489 13490 1
10118 13489 13491 1
10119 13489 13492 1
10120 13493 13494 1
10121 13493 13495 1
10122 13493 13496 1
10123 13497 13498 1
10124 13497 13499 1
10125 13497 13500 1
10126 13501 13502 1
10127 13501 13503 1
10128 13501 13504 1
10129 13505 13506 1
10130 13505 13507 1
10131 13505 13508 1
10132 13509 13510 1
10133 13509 13511 1
10134 13509 13512 1
10135 13513 13514 1
10136 13513 13515 1
10137 13513 13516 1
10138 13517 13518 1
10139 13517 13519 1
10140 13517 13520 1
10141 13521 13522 1
10142 13521 13523 1
10143 13521 13524 1
10144 13525 13526 1
10145 13525 13527 1
10146 13525 13528 1
10147 13529 13530 1
10148 13529 13531 1
10149 13529 13532 1
10150 13533 13534 1
10151 13533 13535 1
10152 13533 13536 1
10153 13537 13538 1
10154 13537 13539 1
10155 13537 13540 1
10156 13541 13542 1
10157 13541 13543 1
10158 13541 13544 1
10159 13545 13546 1
10160 13545 13547 1
10161 13545 13548 1
10162 13549 13550 1
10163 13549 13551 1
10164 13549 13552 1
10165 13553 13554 1
10166 13553 13555 1
10167 13553 13556 1
10168 13557 13558 1
10169 13557 13559 1
10170 13557 13560 1
10171 13561 13562 1
10172 13561 13563 1
10173 13561 13564 1
10174 13565 13566 1
10175 13565 13567 1
10176 13565 13568 1
10177 13569 13570 1
10178 13569 13571 1
10179 13569 13572 1
10180 13573 13576 1
10181 13573 13574 1
10182 13573 13575 1
10183 13577 13578 1
10184 13577 13579 1
10185 13577 13580 1
10186 13581 13582 1
10187 13581 13583 1
10188 13581 13584 1
10189 13585 13586 1
10190 13585 13587 1
10191 13585 13588 1
10192 13589 13590 1
10193 13589 13591 1
10194 13589 13592 1
10195 13593 13594 1
10196 13593 13595 1
10197 13593 13596 1
10198 13597 13598 1
10199 13597 13599 1
10200 13597 13600 1
10201 13601 13602 1
10202 13601 13603 1
10203 13601 13604 1
10204 13605 13606 1
10205 13605 13607 1
10206 13605 13608 1
10207 13609 13610 1
10208 13609 13611 1
10209 13609 13612 1
10210 13613 13614 1
10211 13613 13615 1
10212 13613 13616 1
10213 13617 13618 1
10214 13617 13619 1
10215 13617 13620 1
10216 13621 13622 1
10217 13621 13623 1
10218 13621 13624 1
10219 13625 13626 1
10220 13625 13627 1
10221 13625 13628 1
10222 13629 13630 1
10223 13629 13631 1
10224 13629 13632 1
10225 13633 13634 1
10226 13633 13635 1
10227 13633 13636 1
10228 13637 13638 1
10229 13637 13639 1
10230 13637 13640 1
10231 13641 13642 1
10232 13641 13643 1
10233 13641 13644 1
10234 13645 13646 1
10235 13645 13647 1
10236 13645 13648 1
10237 13649 13650 1
10238 13649 13651 1
10239 13649 13652 1
10240 13653 13654 1
10241 13653 13655 1
10242 13653 13656 1
10243 13657 13658 1
10244 13657 13659 1
10245 13657 13660 1
10246 13661 13662 1
10247 13661 13663 1
10248 13661 13664 1
10249 13665 13666 1
10250 13665 13667 1
10251 13665 13668 1
10252 13669 13670 1
10253 13669 13671 1
10254 13669 13672 1
10255 13673 13674 1
10256 13673 13675 1
10257 13673 13676 1
10258 13677 13678 1
10259 13677 13679 1
10260 13677 13680 1
10261 13681 13682 1
10262 13681 13683 1
10263 13681 13684 1
10264 13685 13686 1
10265 13685 13687 1
10266 13685 13688 1
10267 13689 13690 1
10268 13689 13691 1
10269 13689 13692 1
10270 13693 13694 1
10271 13693 13695 1
10272 13693 13696 1
10273 13697 13698 1
10274 13697 13699 1
10275 13697 13700 1
10276 13701 13702 1
10277 13701 13703 1
10278 13701 13704 1
10279 13705 13706 1
10280 13705 13707 1
10281 13705 13708 1
10282 13709 13710 1
10283 13709 13711 1
10284 13709 13712 1
10285 13713 13714 1
10286 13713 13715 1
10287 13713 13716 1
10288 13717 13718 1
10289 13717 13719 1
10290 13717 13720 1
10291 13721 13722 1
10292 13721 13723 1
10293 13721 13724 1
10294 13725 13726 1
10295 13725 13727 1
10296 13725 13728 1
10297 13729 13730 1
10298 13729 13731 1
10299 13729 13732 1
10300 13733 13734 1
10301 13733 13735 1
10302 13733 13736 1
10303 13737 13738 1
10304 13737 13739 1
10305 13737 13740 1
10306 13741 13742 1
10307 13741 13743 1
10308 13741 13744 1
10309 13745 13746 1
10310 13745 13747 1
10311 13745 13748 1
10312 13749 13750 1
10313 13749 13751 1
10314 13749 13752 1
10315 13753 13754 1
10316 13753 13755 1
10317 13753 13756 1
10318 13757 13758 1
10319 13757 13759 1
10320 13757 13760 1
10321 13761 13762 1
10322 13761 13763 1
10323 13761 13764 1
10324 13765 13766 1
10325 13765 13767 1
10326 13765 13768 1
10327 13769 13770 1
10328 13769 13771 1
10329 13769 13772 1
10330 13773 13774 1
10331 13773 13775 1
10332 13773 13776 1
10333 13777 13778 1
10334 13777 13779 1
10335 13777 13780 1
10336 13781 13782 1
10337 13781 13783 1
10338 13781 13784 1
10339 13785 13786 1
10340 13785 13787 1
10341 13785 13788 1
10342 13789 13790 1
10343 13789 13791 1
10344 13789 13792 1
10345 13793 13794 1
10346 13793 13795 1
10347 13793 13796 1
10348 13797 13798 1
10349 13797 13799 1
10350 13797 13800 1
10351 13801 13802 1
10352 13801 13803 1
10353 13801 13804 1
10354 13805 13806 1
10355 13805 13807 1
10356 13805 13808 1
10357 13809 13810 1
10358 13809 13811 1
10359 13809 13812 1
10360 13813 13814 1
10361 13813 13815 1
10362 13813 13816 1
10363 13817 13818 1
10364 13817 13819 1
10365 13817 13820 1
10366 13821 13822 1
10367 13821 13823 1
10368 13821 13824 1
10369 13825 13826 1
10370 13825 13827 1
10371 13825 13828 1
10372 13829 13830 1
10373 13829 13831 1
10374 13829 13832 1
10375 13833 13834 1
10376 13833 13835 1
10377 13833 13836 1
10378 13837 13838 1
10379 13837 13839 1
10380 13837 13840 1
10381 13841 13842 1
10382 13841 13843 1
10383 13841 13844 1
10384 13845 13846 1
10385 13845 13847 1
10386 13845 13848 1
10387 13849 13850 1
10388 13849 13851 1
10389 13849 13852 1
10390 13853 13854 1
10391 13853 13855 1
10392 13853 13856 1
10393 13857 13858 1
10394 13857 13859 1
10395 13857 13860 1
10396 13861 13862 1
10397 13861 13863 1
10398 13861 13864 1
10399 13865 13866 1
10400 13865 13867 1
10401 13865 13868 1
10402 13869 13870 1
10403 13869 13871 1
10404 13869 13872 1
10405 13873 13874 1
10406 13873 13875 1
10407 13873 13876 1
10408 13877 13878 1
10409 13877 13879 1
10410 13877 13880 1
10411 13881 13882 1
10412 13881 13883 1
10413 13881 13884 1
10414 13885 13886 1
10415 13885 13887 1
10416 13885 13888 1
10417 13889 13890 1
10418 13889 13891 1
10419 13889 13892 1
10420 13893 13894 1
10421 13893 13895 1
10422 13893 13896 1
10423 13897 13898 1
10424 13897 13899 1
10425 13897 13900 1
10426 13901 13902 1
10427 13901 13903 1
10428 13901 13904 1
10429 13905 13906 1
10430 13905 13907 1
10431 13905 13908 1
10432 13909 13910 1
10433 13909 13911 1
10434 13909 13912 1
10435 13913 13914 1
10436 13913 13915 1
10437 13913 13916 1
10438 13917 13918 1
10439 13917 13919 1
10440 13917 13920 1
10441 13921 13922 1
10442 13921 13923 1
10443 13921 13924 1
10444 13925 13926 1
10445 13925 13927 1
10446 13925 13928 1
10447 13929 13930 1
10448 13929 13931 1
10449 13929 13932 1
10450 13933 13934 1
10451 13933 13935 1
10452 13933 13936 1
10453 13937 13938 1
10454 13937 13939 1
10455 13937 13940 1
10456 13941 13942 1
10457 13941 13943 1
10458 13941 13944 1
10459 13945 13946 1
10460 13945 13947 1
10461 13945 13948 1
10462 13949 13950 1
10463 13949 13951 1
10464 13949 13952 1
10465 13953 13956 1
10466 13953 13954 1
10467 13953 13955 1
10468 13957 13958 1
10469 13957 13959 1
10470 13957 13960 1
10471 13961 13962 1
10472 13961 13963 1
10473 13961 13964 1
10474 13965 13966 1
10475 13965 13967 1
10476 13965 13968 1
10477 13969 13970 1
10478 13969 13971 1
10479 13969 13972 1
10480 13973 13974 1
10481 13973 13975 1
10482 13973 13976 1
10483 13977 13978 1
10484 13977 13979 1
10485 13977 13980 1
10486 13981 13982 1
10487 13981 13983 1
10488 13981 13984 1
10489 13985 13986 1
10490 13985 13987 1
10491 13985 13988 1
10492 13989 13990 1
10493 13989 13991 1
10494 13989 13992 1
10495 13993 13994 1
10496 13993 13995 1
10497 13993 13996 1
10498 13997 13998 1
10499 13997 13999 1
10500 13997 14000 1
10501 14001 14002 1
10502 14001 14003 1
10503 14001 14004 1
10504 14005 14006 1
10505 14005 14007 1
10506 14005 14008 1
10507 14009 14010 1
10508 14009 14011 1
10509 14009 14012 1
10510 14013 14014 1
10511 14013 14015 1
10512 14013 14016 1
10513 14017 14018 1
10514 14017 14019 1
10515 14017 14020 1
10516 14021 14022 1
10517 14021 14023 1
10518 14021 14024 1
10519 14025 14026 1
10520 14025 14027 1
10521 14025 14028 1
10522 14029 14030 1
10523 14029 14031 1
10524 14029 14032 1
10525 14033 14034 1
10526 14033 14035 1
10527 14033 14036 1
10528 14037 14038 1
10529 14037 14039 1
10530 14037 14040 1
10531 14041 14042 1
10532 14041 14043 1
10533 14041 14044 1
10534 14045 14046 1
10535 14045 14047 1
10536 14045 14048 1
10537 14049 14050 1
10538 14049 14051 1
10539 14049 14052 1
10540 14053 14054 1
10541 14053 14055 1
10542 14053 14056 1
10543 14057 14058 1
10544 14057 14059 1
10545 14057 14060 1
10546 14061 14062 1
10547 14061 14063 1
10548 14061 14064 1
10549 14065 14066 1
10550 14065 14067 1
10551 14065 14068 1
10552 14069 14070 1
10553 14069 14071 1
10554 14069 14072 1
10555 14073 14074 1
10556 14073 14075 1
10557 14073 14076 1
10558 14077 14080 1
10559 14077 14078 1
10560 14077 14079 1
10561 14081 14082 1
10562 14081 14083 1
10563 14081 14084 1
10564 14085 14086 1
10565 14085 14087 1
10566 14085 14088 1
10567 14089 14090 1
10568 14089 14091 1
10569 14089 14092 1
10570 14093 14094 1
10571 14093 14095 1
10572 14093 14096 1
10573 14097 14098 1
10574 14097 14099 1
10575 14097 14100 1
10576 14101 14102 1
10577 14101 14103 1
10578 14101 14104 1
10579 14105 14106 1
10580 14105 14107 1
10581 14105 14108 1
10582 14109 14110 1
10583 14109 14111 1
10584 14109 14112 1
10585 14113 14114 1
10586 14113 14115 1
10587 14113 14116 1
10588 14117 14118 1
10589 14117 14119 1
10590 14117 14120 1
10591 14121 14122 1
10592 14121 14123 1
10593 14121 14124 1
10594 14125 14126 1
10595 14125 14127 1
10596 14125 14128 1
10597 14129 14130 1
10598 14129 14131 1
10599 14129 14132 1
10600 14133 14134 1
10601 14133 14135 1
10602 14133 14136 1
10603 14137 14138 1
10604 14137 14139 1
10605 14137 14140 1
10606 14141 14142 1
10607 14141 14143 1
10608 14141 14144 1
10609 14145 14146 1
10610 14145 14147 1
10611 14145 14148 1
10612 14149 14150 1
10613 14149 14151 1
10614 14149 14152 1
10615 14153 14154 1
10616 14153 14155 1
10617 14153 14156 1
10618 14157 14158 1
10619 14157 14159 1
10620 14157 14160 1
10621 14161 14162 1
10622 14161 14163 1
10623 14161 14164 1
10624 14165 14166 1
10625 14165 14167 1
10626 14165 14168 1
10627 14169 14170 1
10628 14169 14171 1
10629 14169 14172 1
10630 14173 14174 1
10631 14173 14175 1
10632 14173 14176 1
10633 14177 14178 1
10634 14177 14179 1
10635 14177 14180 1
10636 14181 14182 1
10637 14181 14183 1
10638 14181 14184 1
10639 14185 14186 1
10640 14185 14187 1
10641 14185 14188 1
10642 14189 14190 1
10643 14189 14191 1
10644 14189 14192 1
10645 14193 14194 1
10646 14193 14195 1
10647 14193 14196 1
10648 14197 14198 1
10649 14197 14199 1
10650 14197 14200 1
10651 14201 14202 1
10652 14201 14203 1
10653 14201 14204 1
10654 14205 14206 1
10655 14205 14207 1
10656 14205 14208 1
10657 14209 14210 1
10658 14209 14211 1
10659 14209 14212 1
10660 14213 14214 1
10661 14213 14215 1
10662 14213 14216 1
10663 14217 14218 1
10664 14217 14219 1
10665 14217 14220 1
10666 14221 14222 1
10667 14221 14223 1
10668 14221 14224 1
10669 14225 14226 1
10670 14225 14227 1
10671 14225 14228 1
10672 14229 14230 1
10673 14229 14231 1
10674 14229 14232 1
10675 14233 14234 1
10676 14233 14235 1
10677 14233 14236 1
10678 14237 14238 1
10679 14237 14239 1
10680 14237 14240 1
10681 14241 14242 1
10682 14241 14243 1
10683 14241 14244 1
10684 14245 14246 1
10685 14245 14247 1
10686 14245 14248 1
10687 14249 14250 1
10688 14249 14251 1
10689 14249 14252 1
10690 14253 14254 1
10691 14253 14255 1
10692 14253 14256 1
10693 14257 14258 1
10694 14257 14259 1
10695 14257 14260 1
10696 14261 14262 1
10697 14261 14263 1
10698 14261 14264 1
10699 14265 14266 1
10700 14265 14267 1
10701 14265 14268 1
10702 14269 14271 1
10703 14269 14272 1
10704 14269 14270 1
10705 14273 14274 1
10706 14273 14275 1
10707 14273 14276 1
10708 14277 14278 1
10709 14277 14279 1
10710 14277 14280 1
10711 14281 14282 1
10712 14281 14283 1
10713 14281 14284 1
10714 14285 14286 1
10715 14285 14287 1
10716 14285 14288 1
10717 14289 14290 1
10718 14289 14291 1
10719 14289 14292 1
10720 14293 14294 1
10721 14293 14295 1
10722 14293 14296 1
10723 14297 14298 1
10724 14297 14299 1
10725 14297 14300 1
10726 14301 14302 1
10727 14301 14303 1
10728 14301 14304 1
10729 14305 14306 1
10730 14305 14307 1
10731 14305 14308 1
10732 14309 14310 1
10733 14309 14311 1
10734 14309 14312 1
10735 14313 14314 1
10736 14313 14315 1
10737 14313 14316 1
10738 14317 14318 1
10739 14317 14319 1
10740 14317 14320 1
10741 14321 14322 1
10742 14321 14323 1
10743 14321 14324 1
10744 14325 14326 1
10745 14325 14327 1
10746 14325 14328 1
10747 14329 14330 1
10748 14329 14331 1
10749 14329 14332 1
10750 14333 14334 1
10751 14333 14335 1
10752 14333 14336 1
10753 14337 14338 1
10754 14337 14339 1
10755 14337 14340 1
10756 14341 14342 1
10757 14341 14343 1
10758 14341 14344 1
10759 14345 14346 1
10760 14345 14347 1
10761 14345 14348 1
10762 14349 14350 1
10763 14349 14351 1
10764 14349 14352 1
10765 14353 14354 1
10766 14353 14355 1
10767 14353 14356 1
10768 14357 14358 1
10769 14357 14359 1
10770 14357 14360 1
10771 14361 14362 1
10772 14361 14363 1
10773 14361 14364 1
10774 14365 14366 1
10775 14365 14367 1
10776 14365 14368 1
10777 14369 14370 1
10778 14369 14371 1
10779 14369 14372 1
10780 14373 14374 1
10781 14373 14375 1
10782 14373 14376 1
10783 14377 14378 1
10784 14377 14379 1
10785 14377 14380 1
10786 14381 14382 1
10787 14381 14383 1
10788 14381 14384 1
10789 14385 14386 1
10790 14385 14387 1
10791 14385 14388 1
10792 14389 14390 1
10793 14389 14391 1
10794 14389 14392 1
10795 14393 14394 1
10796 14393 14395 1
10797 14393 14396 1
10798 14397 14398 1
10799 14397 14399 1
10800 14397 14400 1
10801 14401 14402 1
10802 14401 14403 1
10803 14401 14404 1
10804 14405 14406 1
10805 14405 14407 1
10806 14405 14408 1
10807 14409 14410 1
10808 14409 14411 1
10809 14409 14412 1
10810 14413 14414 1
10811 14413 14415 1
10812 14413 14416 1
10813 14417 14418 1
10814 14417 14419 1
10815 14417 14420 1
10816 14421 14422 1
10817 14421 14423 1
10818 14421 14424 1
10819 14425 14426 1
10820 14425 14427 1
10821 14425 14428 1
10822 14429 14430 1
10823 14429 14431 1
10824 14429 14432 1
10825 14433 14434 1
10826 14433 14435 1
10827 14433 14436 1
10828 14437 14438 1
10829 14437 14439 1
10830 14437 14440 1
10831 14441 14442 1
10832 14441 14443 1
10833 14441 14444 1
10834 14445 14446 1
10835 14445 14447 1
10836 14445 14448 1
10837 14449 14450 1
10838 14449 14451 1
10839 14449 14452 1
10840 14453 14454 1
10841 14453 14455 1
10842 14453 14456 1
10843 14457 14460 1
10844 14457 14458 1
10845 14457 14459 1
10846 14461 14462 1
10847 14461 14463 1
10848 14461 14464 1
10849 14465 14466 1
10850 14465 14467 1
10851 14465 14468 1
10852 14469 14470 1
10853 14469 14471 1
10854 14469 14472 1
10855 14473 14474 1
10856 14473 14475 1
10857 14473 14476 1
10858 14477 14478 1
10859 14477 14479 1
10860 14477 14480 1
10861 14481 14482 1
10862 14481 14483 1
10863 14481 14484 1
10864 14485 14486 1
10865 14485 14487 1
10866 14485 14488 1
10867 14489 14490 1
10868 14489 14491 1
10869 14489 14492 1
10870 14493 14494 1
10871 14493 14495 1
10872 14493 14496 1
10873 14497 14498 1
10874 14497 14499 1
10875 14497 14500 1
10876 14501 14502 1
10877 14501 14503 1
10878 14501 14504 1
10879 14505 14506 1
10880 14505 14507 1
10881 14505 14508 1
10882 14509 14510 1
10883 14509 14511 1
10884 14509 14512 1
10885 14513 14514 1
10886 14513 14515 1
10887 14513 14516 1
10888 14517 14518 1
10889 14517 14519 1
10890 14517 14520 1
10891 14521 14522 1
10892 14521 14523 1
10893 14521 14524 1
10894 14525 14526 1
10895 14525 14527 1
10896 14525 14528 1
10897 14529 14530 1
10898 14529 14531 1
10899 14529 14532 1
10900 14533 14534 1
10901 14533 14535 1
10902 14533 14536 1
10903 14537 14538 1
10904 14537 14539 1
10905 14537 14540 1
10906 14541 14542 1
10907 14541 14543 1
10908 14541 14544 1
10909 14545 14546 1
10910 14545 14547 1
10911 14545 14548 1
10912 14549 14550 1
10913 14549 14551 1
10914 14549 14552 1
10915 14553 14554 1
10916 14553 14555 1
10917 14553 14556 1
10918 14557 14558 1
10919 14557 14559 1
10920 14557 14560 1
10921 14561 14562 1
10922 14561 14563 1
10923 14561 14564 1
10924 14565 14566 1
10925 14565 14567 1
10926 14565 14568 1
10927 14569 14570 1
10928 14569 14571 1
10929 14569 14572 1
10930 14573 14574 1
10931 14573 14575 1
10932 14573 14576 1
10933 14577 14578 1
10934 14577 14579 1
10935 14577 14580 1
10936 14581 14582 1
10937 14581 14583 1
10938 14581 14584 1
10939 14585 14586 1
10940 14585 14587 1
10941 14585 14588 1
10942 14589 14590 1
10943 14589 14591 1
10944 14589 14592 1
10945 14593 14594 1
10946 14593 14595 1
10947 14593 14596 1
10948 14597 14598 1
10949 14597 14599 1
10950 14597 14600 1
10951 14601 14602 1
10952 14601 14603 1
10953 14601 14604 1
10954 14605 14606 1
10955 14605 14607 1
10956 14605 14608 1
10957 14609 14610 1
10958 14609 14611 1
10959 14609 14612 1
10960 14613 14614 1
10961 14613 14615 1
10962 14613 14616 1
10963 14617 14618 1
10964 14617 14619 1
10965 14617 14620 1
10966 14621 14622 1
10967 14621 14623 1
10968 14621 14624 1
10969 14625 14626 1
10970 14625 14627 1
10971 14625 14628 1
10972 14629 14630 1
10973 14629 14631 1
10974 14629 14632 1
10975 14633 14634 1
10976 14633 14635 1
10977 14633 14636 1
10978 14637 14638 1
10979 14637 14639 1
10980 14637 14640 1
10981 14641 14642 1
10982 14641 14643 1
10983 14641 14644 1
10984 14645 14646 1
10985 14645 14647 1
10986 14645 14648 1
10987 14649 14650 1
10988 14649 14651 1
10989 14649 14652 1
10990 14653 14654 1
10991 14653 14655 1
10992 14653 14656 1
10993 14657 14658 1
10994 14657 14659 1
10995 14657 14660 1
10996 14661 14662 1
10997 14661 14663 1
10998 14661 14664 1
10999 14665 14666 1
11000 14665 14667 1
11001 14665 14668 1
11002 14669 14670 1
11003 14669 14671 1
11004 14669 14672 1
11005 14673 14674 1
11006 14673 14675 1
11007 14673 14676 1
11008 14677 14678 1
11009 14677 14679 1
11010 14677 14680 1
11011 14681 14682 1
11012 14681 14683 1
11013 14681 14684 1
11014 14685 14686 1
11015 14685 14687 1
11016 14685 14688 1
11017 14689 14690 1
11018 14689 14691 1
11019 14689 14692 1
11020 14693 14694 1
11021 14693 14695 1
11022 14693 14696 1
11023 14697 14698 1
11024 14697 14699 1
11025 14697 14700 1
11026 14701 14702 1
11027 14701 14703 1
11028 14701 14704 1
11029 14705 14706 1
11030 14705 14707 1
11031 14705 14708 1
11032 14709 14710 1
11033 14709 14711 1
11034 14709 14712 1
11035 14713 14714 1
11036 14713 14715 1
11037 14713 14716 1
11038 14717 14718 1
11039 14717 14719 1
11040 14717 14720 1
11041 14721 14722 1
11042 14721 14723 1
11043 14721 14724 1
11044 14725 14726 1
11045 14725 14727 1
11046 14725 14728 1
11047 14729 14730 1
11048 14729 14731 1
11049 14729 14732 1
11050 14733 14734 1
11051 14733 14735 1
11052 14733 14736 1
11053 14737 14738 1
11054 14737 14739 1
11055 14737 14740 1
11056 14741 14742 1
11057 14741 14743 1
11058 14741 14744 1
11059 14745 14746 1
11060 14745 14747 1
11061 14745 14748 1
11062 14749 14750 1
11063 14749 14751 1
11064 14749 14752 1
11065 14753 14754 1
11066 14753 14755 1
11067 14753 14756 1
11068 14757 14758 1
11069 14757 14759 1
11070 14757 14760 1
11071 14761 14762 1
11072 14761 14763 1
11073 14761 14764 1
11074 14765 14766 1
11075 14765 14767 1
11076 14765 14768 1
11077 14769 14770 1
11078 14769 14771 1
11079 14769 14772 1
11080 14773 14775 1
11081 14773 14776 1
11082 14773 14774 1
11083 14777 14778 1
11084 14777 14779 1
11085 14777 14780 1
11086 14781 14782 1
11087 14781 14783 1
11088 14781 14784 1
11089 14785 14786 1
11090 14785 14787 1
11091 14785 14788 1
11092 14789 14790 1
11093 14789 14791 1
11094 14789 14792 1
11095 14793 14794 1
11096 14793 14795 1
11097 14793 14796 1
11098 14797 14798 1
11099 14797 14799 1
11100 14797 14800 1
11101 14801 14802 1
11102 14801 14803 1
11103 14801 14804 1
11104 14805 14806 1
11105 14805 14807 1
11106 14805 14808 1
11107 14809 14810 1
11108 14809 14811 1
11109 14809 14812 1
11110 14813 14814 1
11111 14813 14815 1
11112 14813 14816 1
11113 14817 14818 1
11114 14817 14819 1
11115 14817 14820 1
11116 14821 14822 1
11117 14821 14823 1
11118 14821 14824 1
11119 14825 14826 1
11120 14825 14827 1
11121 14825 14828 1
11122 14829 14830 1
11123 14829 14831 1
11124 14829 14832 1
11125 14833 14834 1
11126 14833 14835 1
11127 14833 14836 1
11128 14837 14838 1
11129 14837 14839 1
11130 14837 14840 1
11131 14841 14842 1
11132 14841 14843 1
11133 14841 14844 1
11134 14845 14846 1
11135 14845 14847 1
11136 14845 14848 1
11137 14849 14850 1
11138 14849 14851 1
11139 14849 14852 1
11140 14853 14854 1
11141 14853 14855 1
11142 14853 14856 1
11143 14857 14858 1
11144 14857 14859 1
11145 14857 14860 1
11146 14861 14862 1
11147 14861 14863 1
11148 14861 14864 1
11149 14865 14866 1
11150 14865 14867 1
11151 14865 14868 1
11152 14869 14870 1
11153 14869 14871 1
11154 14869 14872 1
11155 14873 14874 1
11156 14873 14875 1
11157 14873 14876 1
11158 14877 14878 1
11159 14877 14879 1
11160 14877 14880 1
11161 14881 14882 1
11162 14881 14883 1
11163 14881 14884 1
11164 14885 14886 1
11165 14885 14887 1
11166 14885 14888 1
11167 14889 14890 1
11168 14889 14891 1
11169 14889 14892 1
11170 14893 14894 1
11171 14893 14895 1
11172 14893 14896 1
11173 14897 14898 1
11174 14897 14899 1
11175 14897 14900 1
11176 14901 14902 1
11177 14901 14903 1
11178 14901 14904 1
11179 14905 14906 1
11180 14905 14907 1
11181 14905 14908 1
11182 14909 14910 1
11183 14909 14911 1
11184 14909 14912 1
11185 14913 14914 1
11186 14913 14915 1
11187 14913 14916 1
11188 14917 14918 1
11189 14917 14919 1
11190 14917 14920 1
11191 14921 14922 1
11192 14921 14923 1
11193 14921 14924 1
11194 14925 14926 1
11195 14925 14927 1
11196 14925 14928 1
11197 14929 14930 1
11198 14929 14931 1
11199 14929 14932 1
11200 14933 14934 1
11201 14933 14935 1
11202 14933 14936 1
11203 14937 14938 1
11204 14937 14939 1
11205 14937 14940 1
11206 14941 14942 1
11207 14941 14943 1
11208 14941 14944 1
11209 14945 14946 1
11210 14945 14947 1
11211 14945 14948 1
11212 14949 14950 1
11213 14949 14951 1
11214 14949 14952 1
11215 14953 14954 1
11216 14953 14955 1
11217 14953 14956 1
11218 14957 14958 1
11219 14957 14959 1
11220 14957 14960 1
11221 14961 14964 1
11222 14961 14962 1
11223 14961 14963 1
11224 14965 14966 1
11225 14965 14967 1
11226 14965 14968 1
11227 14969 14970 1
11228 14969 14971 1
11229 14969 14972 1
11230 14973 14974 1
11231 14973 14975 1
11232 14973 14976 1
11233 14977 14978 1
11234 14977 14979 1
11235 14977 14980 1
11236 14981 14982 1
11237 14981 14983 1
11238 14981 14984 1
11239 14985 14986 1
11240 14985 14987 1
11241 14985 14988 1
11242 14989 14990 1
11243 14989 14991 1
11244 14989 14992 1
11245 14993 14994 1
11246 14993 14995 1
11247 14993 14996 1
11248 14997 14998 1
11249 14997 14999 1
11250 14997 15000 1
11251 15001 15002 1
11252 15001 15003 1
11253 15001 15004 1
11254 15005 15006 1
11255 15005 15007 1
11256 15005 15008 1
11257 15009 15010 1
11258 15009 15011 1
11259 15009 15012 1
11260 15013 15014 1
11261 15013 15015 1
11262 15013 15016 1
11263 15017 15018 1
11264 15017 15019 1
11265 15017 15020 1
11266 15021 15022 1
11267 15021 15023 1
11268 15021 15024 1
11269 15025 15026 1
11270 15025 15027 1
11271 15025 15028 1
11272 15029 15030 1
11273 15029 15031 1
11274 15029 15032 1
11275 15033 15034 1
11276 15033 15035 1
11277 15033 15036 1
11278 15037 15038 1
11279 15037 15039 1
11280 15037 15040 1
11281 15041 15042 1
11282 15041 15043 1
11283 15041 15044 1
11284 15045 15046 1
11285 15045 15047 1
11286 15045 15048 1
11287 15049 15050 1
11288 15049 15051 1
11289 15049 15052 1
11290 15053 15054 1
11291 15053 15055 1
11292 15053 15056 1
11293 15057 15058 1
11294 15057 15059 1
11295 15057 15060 1
11296 15061 15062 1
11297 15061 15063 1
11298 15061 15064 1
11299 15065 15066 1
11300 15065 15067 1
11301 15065 15068 1
11302 15069 15070 1
11303 15069 15071 1
11304 15069 15072 1
11305 15073 15074 1
11306 15073 15075 1
11307 15073 15076 1
11308 15077 15078 1
11309 15077 15079 1
11310 15077 15080 1
11311 15081 15082 1
11312 15081 15083 1
11313 15081 15084 1
11314 15085 15088 1
11315 15085 15086 1
11316 15085 15087 1
11317 15089 15090 1
11318 15089 15091 1
11319 15089 15092 1
11320 15093 15094 1
11321 15093 15095 1
11322 15093 15096 1
11323 15097 15098 1
11324 15097 15099 1
11325 15097 15100 1
11326 15101 15102 1
11327 15101 15103 1
11328 15101 15104 1
11329 15105 15106 1
11330 15105 15107 1
11331 15105 15108 1
11332 15109 15110 1
11333 15109 15111 1
11334 15109 15112 1
11335 15113 15114 1
11336 15113 15115 1
11337 15113 15116 1
11338 15117 15118 1
11339 15117 15119 1
11340 15117 15120 1
11341 15121 15122 1
11342 15121 15123 1
11343 15121 15124 1
11344 15125 15126 1
11345 15125 15127 1
11346 15125 15128 1
11347 15129 15130 1
11348 15129 15131 1
11349 15129 15132 1
11350 15133 15134 1
11351 15133 15135 1
11352 15133 15136 1
11353 15137 15138 1
11354 15137 15139 1
11355 15137 15140 1
11356 15141 15142 1
11357 15141 15143 1
11358 15141 15144 1
11359 15145 15146 1
11360 15145 15147 1
11361 15145 15148 1
11362 15149 15150 1
11363 15149 15151 1
11364 15149 15152 1
11365 15153 15154 1
11366 15153 15155 1
11367 15153 15156 1
11368 15157 15158 1
11369 15157 15159 1
11370 15157 15160 1
11371 15161 15162 1
11372 15161 15163 1
11373 15161 15164 1
11374 15165 15166 1
11375 15165 15167 1
11376 15165 15168 1
11377 15169 15170 1
11378 15169 15171 1
11379 15169 15172 1
11380 15173 15174 1
11381 15173 15175 1
11382 15173 15176 1
11383 15177 15178 1
11384 15177 15179 1
11385 15177 15180 1
11386 15181 15182 1
11387 15181 15183 1
11388 15181 15184 1
11389 15185 15186 1
11390 15185 15187 1
11391 15185 15188 1
11392 15189 15190 1
11393 15189 15191 1
11394 15189 15192 1
11395 15193 15194 1
11396 15193 15195 1
11397 15193 15196 1
11398 15197 15198 1
11399 15197 15199 1
11400 15197 15200 1
11401 15201 15202 1
11402 15201 15203 1
11403 15201 15204 1
11404 15205 15206 1
11405 15205 15207 1
11406 15205 15208 1
11407 15209 15210 1
11408 15209 15211 1
11409 15209 15212 1
11410 15213 15214 1
11411 15213 15215 1
11412 15213 15216 1
11413 15217 15218 1
11414 15217 15219 1
11415 15217 15220 1
11416 15221 15222 1
11417 15221 15223 1
11418 15221 15224 1
11419 15225 15226 1
11420 15225 15227 1
11421 15225 15228 1
11422 15229 15230 1
11423 15229 15231 1
11424 15229 15232 1
11425 15233 15234 1
11426 15233 15235 1
11427 15233 15236 1
11428 15237 15238 1
11429 15237 15239 1
11430 15237 15240 1
11431 15241 15242 1
11432 15241 15243 1
11433 15241 15244 1
11434 15245 15246 1
11435 15245 15247 1
11436 15245 15248 1
11437 15249 15250 1
11438 15249 15251 1
11439 15249 15252 1
11440 15253 15254 1
11441 15253 15255 1
11442 15253 15256 1
11443 15257 15258 1
11444 15257 15259 1
11445 15257 15260 1
11446 15261 15262 1
11447 15261 15263 1
11448 15261 15264 1
11449 15265 15266 1
11450 15265 15267 1
11451 15265 15268 1
11452 15269 15270 1
11453 15269 15271 1
11454 15269 15272 1
11455 15273 15274 1
11456 15273 15275 1
11457 15273 15276 1
11458 15277 15279 1
11459 15277 15280 1
11460 15277 15278 1
11461 15281 15282 1
11462 15281 15283 1
11463 15281 15284 1
11464 15285 15286 1
11465 15285 15287 1
11466 15285 15288 1
11467 15289 15290 1
11468 15289 15291 1
11469 15289 15292 1
11470 15293 15294 1
11471 15293 15295 1
11472 15293 15296 1
11473 15297 15298 1
11474 15297 15299 1
11475 15297 15300 1
11476 15301 15302 1
11477 15301 15303 1
11478 15301 15304 1
11479 15305 15306 1
11480 15305 15307 1
11481 15305 15308 1
11482 15309 15310 1
11483 15309 15311 1
11484 15309 15312 1
11485 15313 15314 1
11486 15313 15315 1
11487 15313 15316 1
11488 15317 15318 1
11489 15317 15319 1
11490 15317 15320 1
11491 15321 15322 1
11492 15321 15323 1
11493 15321 15324 1
11494 15325 15326 1
11495 15325 15327 1
11496 15325 15328 1
11497 15329 15330 1
11498 15329 15331 1
11499 15329 15332 1
11500 15333 15334 1
11501 15333 15335 1
11502 15333 15336 1
11503 15337 15338 1
11504 15337 15339 1
11505 15337 15340 1
11506 15341 15342 1
11507 15341 15343 1
11508 15341 15344 1
11509 15345 15346 1
11510 15345 15347 1
11511 15345 15348 1
11512 15349 15350 1
11513 15349 15351 1
11514 15349 15352 1
11515 15353 15354 1
11516 15353 15355 1
11517 15353 15356 1
11518 15357 15358 1
11519 15357 15359 1
11520 15357 15360 1
11521 15361 15362 1
11522 15361 15363 1
11523 15361 15364 1
11524 15365 15366 1
11525 15365 15367 1
11526 15365 15368 1
11527 15369 15370 1
11528 15369 15371 1
11529 15369 15372 1
11530 15373 15374 1
11531 15373 15375 1
11532 15373 15376 1
11533 15377 15378 1
11534 15377 15379 1
11535 15377 15380 1
11536 15381 15382 1
11537 15381 15383 1
11538 15381 15384 1
11539 15385 15386 1
11540 15385 15387 1
11541 15385 15388 1
11542 15389 15390 1
11543 15389 15391 1
11544 15389 15392 1
11545 15393 15394 1
11546 15393 15395 1
11547 15393 15396 1
11548 15397 15398 1
11549 15397 15399 1
11550 15397 15400 1
11551 15401 15402 1
11552 15401 15403 1
11553 15401 15404 1
11554 15405 15406 1
11555 15405 15407 1
11556 15405 15408 1
11557 15409 15410 1
11558 15409 15411 1
11559 15409 15412 1
11560 15413 15414 1
11561 15413 15415 1
11562 15413 15416 1
11563 15417 15418 1
11564 15417 15419 1
11565 15417 15420 1
11566 15421 15422 1
11567 15421 15423 1
11568 15421 15424 1
11569 15425 15426 1
11570 15425 15427 1
11571 15425 15428 1
11572 15429 15430 1
11573 15429 15431 1
11574 15429 15432 1
11575 15433 15434 1
11576 15433 15435 1
11577 15433 15436 1
11578 15437 15438 1
11579 15437 15439 1
11580 15437 15440 1
11581 15441 15442 1
11582 15441 15443 1
11583 15441 15444 1
11584 15445 15446 1
11585 15445 15447 1
11586 15445 15448 1
11587 15449 15450 1
11588 15449 15451 1
11589 15449 15452 1
11590 15453 15454 1
11591 15453 15455 1
11592 15453 15456 1
11593 15457 15458 1
11594 15457 15459 1
11595 15457 15460 1
11596 15461 15462 1
11597 15461 15463 1
11598 15461 15464 1
11599 15465 15468 1
11600 15465 15466 1
11601 15465 15467 1
11602 15469 15470 1
11603 15469 15471 1
11604 15469 15472 1
11605 15473 15474 1
11606 15473 15475 1
11607 15473 15476 1
11608 15477 15478 1
11609 15477 15479 1
11610 15477 15480 1
11611 15481 15482 1
11612 15481 15483 1
11613 15481 15484 1
11614 15485 15486 1
11615 15485 15487 1
11616 15485 15488 1
11617 15489 15490 1
11618 15489 15491 1
11619 15489 15492 1
11620 15493 15494 1
11621 15493 15495 1
11622 15493 15496 1
11623 15497 15498 1
11624 15497 15499 1
11625 15497 15500 1
11626 15501 15502 1
11627 15501 15503 1
11628 15501 15504 1
11629 15505 15506 1
11630 15505 15507 1
11631 15505 15508 1
11632 15509 15510 1
11633 15509 15511 1
11634 15509 15512 1
11635 15513 15514 1
11636 15513 15515 1
11637 15513 15516 1
11638 15517 15518 1
11639 15517 15519 1
11640 15517 15520 1
11641 15521 15522 1
11642 15521 15523 1
11643 15521 15524 1
11644 15525 15526 1
11645 15525 15527 1
11646 15525 15528 1
11647 15529 15530 1
11648 15529 15531 1
11649 15529 15532 1
11650 15533 15534 1
11651 15533 15535 1
11652 15533 15536 1
11653 15537 15538 1
11654 15537 15539 1
11655 15537 15540 1
11656 15541 15542 1
11657 15541 15543 1
11658 15541 15544 1
11659 15545 15546 1
11660 15545 15547 1
11661 15545 15548 1
11662 15549 15550 1
11663 15549 15551 1
11664 15549 15552 1
11665 15553 15554 1
11666 15553 15555 1
11667 15553 15556 1
11668 15557 15558 1
11669 15557 15559 1
11670 15557 15560 1
11671 15561 15562 1
11672 15561 15563 1
11673 15561 15564 1
11674 15565 15566 1
11675 15565 15567 1
11676 15565 15568 1
11677 15569 15570 1
11678 15569 15571 1
11679 15569 15572 1
11680 15573 15574 1
11681 15573 15575 1
11682 15573 15576 1
11683 15577 15578 1
11684 15577 15579 1
11685 15577 15580 1
11686 15581 15582 1
11687 15581 15583 1
11688 15581 15584 1
11689 15585 15586 1
11690 15585 15587 1
11691 15585 15588 1
11692 15589 15590 1
11693 15589 15591 1
11694 15589 15592 1
11695 15593 15594 1
11696 15593 15595 1
11697 15593 15596 1
11698 15597 15598 1
11699 15597 15599 1
11700 15597 15600 1
11701 15601 15602 1
11702 15601 15603 1
11703 15601 15604 1
11704 15605 15606 1
11705 15605 15607 1
11706 15605 15608 1
11707 15609 15610 1
11708 15609 15611 1
11709 15609 15612 1
11710 15613 15614 1
11711 15613 15615 1
11712 15613 15616 1
11713 15617 15618 1
11714 15617 15619 1
11715 15617 15620 1
11716 15621 15622 1
11717 15621 15623 1
11718 15621 15624 1
11719 15625 15626 1
11720 15625 15627 1
11721 15625 15628 1
11722 15629 15630 1
11723 15629 15631 1
11724 15629 15632 1
11725 15633 15634 1
11726 15633 15635 1
11727 15633 15636 1
11728 15637 15638 1
11729 15637 15639 1
11730 15637 15640 1
11731 15641 15642 1
11732 15641 15643 1
11733 15641 15644 1
11734 15645 15646 1
11735 15645 15647 1
11736 15645 15648 1
11737 15649 15650 1
11738 15649 15651 1
11739 15649 15652 1
11740 15653 15654 1
11741 15653 15655 1
11742 15653 15656 1
11743 15657 15658 1
11744 15657 15659 1
11745 15657 15660 1
11746 15661 15662 1
11747 15661 15663 1
11748 15661 15664 1
11749 15665 15666 1
11750 15665 15667 1
11751 15665 15668 1
11752 15669 15670 1
11753 15669 15671 1
11754 15669 15672 1
11755 15673 15674 1
11756 15673 15675 1
11757 15673 15676 1
11758 15677 15678 1
11759 15677 15679 1
11760 15677 15680 1
11761 15681 15682 1
11762 15681 15683 1
11763 15681 15684 1
11764 15685 15686 1
11765 15685 15687 1
11766 15685 15688 1
11767 15689 15690 1
11768 15689 15691 1
11769 15689 15692 1
11770 15693 15694 1
11771 15693 15695 1
11772 15693 15696 1
11773 15697 15698 1
11774 15697 15699 1
11775 15697 15700 1
11776 15701 15702 1
11777 15701 15703 1
11778 15701 15704 1
11779 15705 15706 1
11780 15705 15707 1
11781 15705 15708 1
11782 15709 15710 1
11783 15709 15711 1
11784 15709 15712 1
11785 15713 15714 1
11786 15713 15715 1
11787 15713 15716 1
11788 15717 15718 1
11789 15717 15719 1
11790 15717 15720 1
11791 15721 15722 1
11792 15721 15723 1
11793 15721 15724 1
11794 15725 15726 1
11795 15725 15727 1
11796 15725 15728 1
11797 15729 15730 1
11798 15729 15731 1
11799 15729 15732 1
11800 15733 15734 1
11801 15733 15735 1
11802 15733 15736 1
11803 15737 15738 1
11804 15737 15739 1
11805 15737 15740 1
11806 15741 15742 1
11807 15741 15743 1
11808 15741 15744 1
11809 15745 15746 1
11810 15745 15747 1
11811 15745 15748 1
11812 15749 15750 1
11813 15749 15751 1
11814 15749 15752 1
11815 15753 15754 1
11816 15753 15755 1
11817 15753 15756 1
11818 15757 15758 1
11819 15757 15759 1
11820 15757 15760 1
11821 15761 15762 1
11822 15761 15763 1
11823 15761 15764 1
11824 15765 15766 1
11825 15765 15767 1
11826 15765 15768 1
11827 15769 15770 1
11828 15769 15771 1
11829 15769 15772 1
11830 15773 15774 1
11831 15773 15775 1
11832 15773 15776 1
11833 15777 15778 1
11834 15777 15779 1
11835 15777 15780 1
11836 15781 15783 1
11837 15781 15784 1
11838 15781 15782 1
11839 15785 15786 1
11840 15785 15787 1
11841 15785 15788 1
11842 15789 15790 1
11843 15789 15791 1
11844 15789 15792 1
11845 15793 15794 1
11846 15793 15795 1
11847 15793 15796 1
11848 15797 15798 1
11849 15797 15799 1
11850 15797 15800 1
11851 15801 15802 1
11852 15801 15803 1
11853 15801 15804 1
11854 15805 15806 1
11855 15805 15807 1
11856 15805 15808 1
11857 15809 15810 1
11858 15809 15811 1
11859 15809 15812 1
11860 15813 15814 1
11861 15813 15815 1
11862 15813 15816 1
11863 15817 15818 1
11864 15817 15819 1
11865 15817 15820 1
11866 15821 15822 1
11867 15821 15823 1
11868 15821 15824 1
11869 15825 15826 1
11870 15825 15827 1
11871 15825 15828 1
11872 15829 15830 1
11873 15829 15831 1
11874 15829 15832 1
11875 15833 15834 1
11876 15833 15835 1
11877 15833 15836 1
11878 15837 15838 1
11879 15837 15839 1
11880 15837 15840 1
11881 15841 15842 1
11882 15841 15843 1
11883 15841 15844 1
11884 15845 15846 1
11885 15845 15847 1
11886 15845 15848 1
11887 15849 15850 1
11888 15849 15851 1
11889 15849 15852 1
11890 15853 15854 1
11891 15853 15855 1
11892 15853 15856 1
11893 15857 15858 1
11894 15857 15859 1
11895 15857 15860 1
11896 15861 15862 1
11897 15861 15863 1
11898 15861 15864 1
11899 15865 15866 1
11900 15865 15867 1
11901 15865 15868 1
11902 15869 15870 1
11903 15869 15871 1
11904 15869 15872 1
11905 15873 15874 1
11906 15873 15875 1
11907 15873 15876 1
11908 15877 15878 1
11909 15877 15879 1
11910 15877 15880 1
11911 15881 15882 1
11912 15881 15883 1
11913 15881 15884 1
11914 15885 15886 1
11915 15885 15887 1
11916 15885 15888 1
11917 15889 15890 1
11918 15889 15891 1
11919 15889 15892 1
11920 15893 15894 1
11921 15893 15895 1
11922 15893 15896 1
11923 15897 15898 1
11924 15897 15899 1
11925 15897 15900 1
11926 15901 15902 1
11927 15901 15903 1
11928 15901 15904 1
11929 15905 15906 1
11930 15905 15907 1
11931 15905 15908 1
11932 15909 15910 1
11933 15909 15911 1
11934 15909 15912 1
11935 15913 15914 1
11936 15913 15915 1
11937 15913 15916 1
11938 15917 15918 1
11939 15917 15919 1
11940 15917 15920 1
11941 15921 15922 1
11942 15921 15923 1
11943 15921 15924 1
11944 15925 15926 1
11945 15925 15927 1
11946 15925 15928 1
11947 15929 15930 1
11948 15929 15931 1
11949 15929 15932 1
11950 15933 15934 1
11951 15933 15935 1
11952 15933 15936 1
11953 15937 15938 1
11954 15937 15939 1
11955 15937 15940 1
11956 15941 15942 1
11957 15941 15943 1
11958 15941 15944 1
11959 15945 15946 1
11960 15945 15947 1
11961 15945 15948 1
11962 15949 15950 1
11963 15949 15951 1
11964 15949 15952 1
11965 15953 15954 1
11966 15953 15955 1
11967 15953 15956 1
11968 15957 15958 1
11969 15957 15959 1
11970 15957 15960 1
11971 15961 15962 1
11972 15961 15963 1
11973 15961 15964 1
11974 15965 15966 1
11975 15965 15967 1
11976 15965 15968 1
11977 15969 15972 1
11978 15969 15970 1
11979 15969 15971 1
11980 15973 15974 1
11981 15973 15975 1
11982 15973 15976 1
11983 15977 15978 1
11984 15977 15979 1
11985 15977 15980 1
11986 15981 15982 1
11987 15981 15983 1
11988 15981 15984 1
11989 15985 15986 1
11990 15985 15987 1
11991 15985 15988 1
11992 15989 15990 1
11993 15989 15991 1
11994 15989 15992 1
11995 15993 15994 1
11996 15993 15995 1
11997 15993 15996 1
11998 15997 15998 1
11999 15997 15999 1
12000 15997 16000 1
12001 16001 16002 1
12002 16001 16003 1
12003 16001 16004 1
12004 16005 16006 1
12005 16005 16007 1
12006 16005 16008 1
12007 16009 16010 1
12008 16009 16011 1
12009 16009 16012 1
12010 16013 16014 1
12011 16013 16015 1
12012 16013 16016 1
12013 16017 16018 1
12014 16017 16019 1
12015 16017 16020 1
12016 16021 16022 1
12017 16021 16023 1
12018 16021 16024 1
12019 16025 16026 1
12020 16025 16027 1
12021 16025 16028 1
12022 16029 16030 1
12023 16029 16031 1
12024 16029 16032 1
12025 16033 16034 1
12026 16033 16035 1
12027 16033 16036 1
12028 16037 16038 1
12029 16037 16039 1
12030 16037 16040 1
12031 16041 16042 1
12032 16041 16043 1
12033 16041 16044 1
12034 16045 16046 1
12035 16045 16047 1
12036 16045 16048 1
12037 16049 16050 1
12038 16049 16051 1
12039 16049 16052 1
12040 16053 16054 1
12041 16053 16055 1
12042 16053 16056 1
12043 16057 16058 1
12044 16057 16059 1
12045 16057 16060 1
12046 16061 16062 1
12047 16061 16063 1
12048 16061 16064 1
12049 16065 16066 1
12050 16065 16067 1
12051 16065 16068 1
12052 16069 16070 1
12053 16069 16071 1
12054 16069 16072 1
12055 16073 16074 1
12056 16073 16075 1
12057 16073 16076 1
12058 16077 16078 1
12059 16077 16079 1
12060 16077 16080 1
12061 16081 16082 1
12062 16081 16083 1
12063 16081 16084 1
12064 16085 16086 1
12065 16085 16087 1
12066 16085 16088 1
12067 16089 16090 1
12068 16089 16091 1
12069 16089 16092 1
12070 16093 16094 1
12071 16093 16095 1
12072 16093 16096 1
12073 16097 16098 1
12074 16097 16099 1
12075 16097 16100 1
12076 16101 16102 1
12077 16101 16103 1
12078 16101 16104 1
12079 16105 16106 1
12080 16105 16107 1
12081 16105 16108 1
12082 16109 16110 1
12083 16109 16111 1
12084 16109 16112 1
12085 16113 16114 1
12086 16113 16115 1
12087 16113 16116 1
12088 16117 16118 1
12089 16117 16119 1
12090 16117 16120 1
12091 16121 16122 1
12092 16121 16123 1
12093 16121 16124 1
12094 16125 16126 1
12095 16125 16127 1
12096 16125 16128 1
12097 16129 16130 1
12098 16129 16131 1
12099 16129 16132 1
12100 16133 16134 1
12101 16133 16135 1
12102 16133 16136 1
12103 16137 16138 1
12104 16137 16139 1
12105 16137 16140 1
12106 16141 16142 1
12107 16141 16143 1
12108 16141 16144 1
12109 16145 16146 1
12110 16145 16147 1
12111 16145 16148 1
12112 16149 16150 1
12113 16149 16151 1
12114 16149 16152 1
12115 16153 16154 1
12116 16153 16155 1
12117 16153 16156 1
12118 16157 16158 1
12119 16157 16159 1
12120 16157 16160 1
12121 16161 16162 1
12122 16161 16163 1
12123 16161 16164 1
12124 16165 16166 1
12125 16165 16167 1
12126 16165 16168 1
12127 16169 16170 1
12128 16169 16171 1
12129 16169 16172 1
12130 16173 16174 1
12131 16173 16175 1
12132 16173 16176 1
12133 16177 16178 1
12134 16177 16179 1
12135 16177 16180 1
12136 16181 16182 1
12137 16181 16183 1
12138 16181 16184 1
12139 16185 16186 1
12140 16185 16187 1
12141 16185 16188 1
12142 16189 16190 1
12143 16189 16191 1
12144 16189 16192 1
12145 16193 16194 1
12146 16193 16195 1
12147 16193 16196 1
12148 16197 16198 1
12149 16197 16199 1
12150 16197 16200 1
12151 16201 16202 1
12152 16201 16203 1
12153 16201 16204 1
12154 16205 16206 1
12155 16205 16207 1
12156 16205 16208 1
12157 16209 16210 1
12158 16209 16211 1
12159 16209 16212 1
12160 16213 16214 1
12161 16213 16215 1
12162 16213 16216 1
12163 16217 16218 1
12164 16217 16219 1
12165 16217 16220 1
12166 16221 16224 1
12167 16221 16222 1
12168 16221 16223 1
12169 16225 16226 1
12170 16225 16227 1
12171 16225 16228 1
12172 16229 16230 1
12173 16229 16231 1
12174 16229 16232 1
12175 16233 16234 1
12176 16233 16236 1
12177 16233 16235 1
12178 16237 16238 1
12179 16237 16239 1
12180 16237 16240 1
12181 16241 16242 1
12182 16241 16243 1
12183 16241 16244 1
12184 16245 16246 1
12185 16245 16247 1
12186 16245 16248 1
12187 16249 16250 1
12188 16249 16251 1
12189 16249 16252 1
12190 16253 16254 1
12191 16253 16255 1
12192 16253 16256 1
12193 16257 16258 1
12194 16257 16259 1
12195 16257 16260 1
12196 16261 16262 1
12197 16261 16263 1
12198 16261 16264 1
12199 16265 16266 1
12200 16265 16267 1
12201 16265 16268 1
12202 16269 16270 1
12203 16269 16271 1
12204 16269 16272 1
12205 16273 16274 1
12206 16273 16275 1
12207 16273 16276 1
12208 16277 16278 1
12209 16277 16279 1
12210 16277 16280 1
12211 16281 16282 1
12212 16281 16283 1
12213 16281 16284 1
12214 16285 16287 1
12215 16285 16288 1
12216 16285 16286 1
12217 16289 16290 1
12218 16289 16291 1
12219 16289 16292 1
12220 16293 16294 1
12221 16293 16295 1
12222 16293 16296 1
12223 16297 16298 1
12224 16297 16299 1
12225 16297 16300 1
12226 16301 16302 1
12227 16301 16303 1
12228 16301 16304 1
12229 16305 16306 1
12230 16305 16307 1
12231 16305 16308 1
12232 16309 16310 1
12233 16309 16311 1
12234 16309 16312 1
12235 16313 16314 1
12236 16313 16315 1
12237 16313 16316 1
12238 16317 16318 1
12239 16317 16319 1
12240 16317 16320 1
12241 16321 16322 1
12242 16321 16323 1
12243 16321 16324 1
12244 16325 16326 1
12245 16325 16327 1
12246 16325 16328 1
12247 16329 16330 1
12248 16329 16331 1
12249 16329 16332 1
12250 16333 16334 1
12251 16333 16335 1
12252 16333 16336 1
12253 16337 16338 1
12254 16337 16339 1
12255 16337 16340 1
12256 16341 16342 1
12257 16341 16343 1
12258 16341 16344 1
12259 16345 16346 1
12260 16345 16347 1
12261 16345 16348 1
12262 16349 16350 1
12263 16349 16351 1
12264 16349 16352 1
12265 16353 16354 1
12266 16353 16355 1
12267 16353 16356 1
12268 16357 16358 1
12269 16357 16359 1
12270 16357 16360 1
12271 16361 16362 1
12272 16361 16363 1
12273 16361 16364 1
12274 16365 16366 1
12275 16365 16367 1
12276 16365 16368 1
12277 16369 16370 1
12278 16369 16371 1
12279 16369 16372 1
12280 16373 16374 1
12281 16373 16375 1
12282 16373 16376 1
12283 16377 16378 1
12284 16377 16379 1
12285 16377 16380 1
12286 16381 16382 1
12287 16381 16383 1
12288 16381 16384 1
12289 16385 16386 1
12290 16385 16387 1
12291 16385 16388 1
12292 16389 16390 1
12293 16389 16391 1
12294 16389 16392 1
12295 16393 16394 1
12296 16393 16395 1
12297 16393 16396 1
12298 16397 16398 1
12299 16397 16399 1
12300 16397 16400 1
12301 16401 16402 1
12302 16401 16403 1
12303 16401 16404 1
12304 16405 16406 1
12305 16405 16407 1
12306 16405 16408 1
12307 16409 16410 1
12308 16409 16411 1
12309 16409 16412 1
12310 16413 16414 1
12311 16413 16415 1
12312 16413 16416 1
12313 16417 16418 1
12314 16417 16419 1
12315 16417 16420 1
12316 16421 16422 1
12317 16421 16423 1
12318 16421 16424 1
12319 16425 16426 1
12320 16425 16427 1
12321 16425 16428 1
12322 16429 16430 1
12323 16429 16431 1
12324 16429 16432 1
12325 16433 16434 1
12326 16433 16435 1
12327 16433 16436 1
12328 16437 16438 1
12329 16437 16439 1
12330 16437 16440 1
12331 16441 16442 1
12332 16441 16443 1
12333 16441 16444 1
12334 16445 16446 1
12335 16445 16447 1
12336 16445 16448 1
12337 16449 16450 1
12338 16449 16451 1
12339 16449 16452 1
12340 16453 16454 1
12341 16453 16455 1
12342 16453 16456 1
12343 16457 16458 1
12344 16457 16459 1
12345 16457 16460 1
12346 16461 16462 1
12347 16461 16463 1
12348 16461 16464 1
12349 16465 16466 1
12350 16465 16467 1
12351 16465 16468 1
12352 16469 16470 1
12353 16469 16471 1
12354 16469 16472 1
12355 16473 16476 1
12356 16473 16474 1
12357 16473 16475 1
12358 16477 16478 1
12359 16477 16479 1
12360 16477 16480 1
12361 16481 16482 1
12362 16481 16483 1
12363 16481 16484 1
12364 16485 16486 1
12365 16485 16487 1
12366 16485 16488 1
12367 16489 16490 1
12368 16489 16491 1
12369 16489 16492 1
12370 16493 16494 1
12371 16493 16495 1
12372 16493 16496 1
12373 16497 16498 1
12374 16497 16499 1
12375 16497 16500 1
12376 16501 16502 1
12377 16501 16503 1
12378 16501 16504 1
12379 16505 16506 1
12380 16505 16507 1
12381 16505 16508 1
12382 16509 16510 1
12383 16509 16511 1
12384 16509 16512 1
12385 16513 16514 1
12386 16513 16515 1
12387 16513 16516 1
12388 16517 16518 1
12389 16517 16519 1
12390 16517 16520 1
12391 16521 16523 1
12392 16521 16524 1
12393 16521 16522 1
12394 16525 16526 1
12395 16525 16527 1
12396 16525 16528 1
12397 16529 16530 1
12398 16529 16531 1
12399 16529 16532 1
12400 16533 16534 1
12401 16533 16535 1
12402 16533 16536 1
12403 16537 16538 1
12404 16537 16539 1
12405 16537 16540 1
12406 16541 16542 1
12407 16541 16543 1
12408 16541 16544 1
12409 16545 16546 1
12410 16545 16547 1
12411 16545 16548 1
12412 16549 16550 1
12413 16549 16551 1
12414 16549 16552 1
12415 16553 16554 1
12416 16553 16555 1
12417 16553 16556 1
12418 16557 16558 1
12419 16557 16559 1
12420 16557 16560 1
12421 16561 16562 1
12422 16561 16563 1
12423 16561 16564 1
12424 16565 16566 1
12425 16565 16567 1
12426 16565 16568 1
12427 16569 16570 1
12428 16569 16571 1
12429 16569 16572 1
12430 16573 16574 1
12431 16573 16575 1
12432 16573 16576 1
12433 16577 16578 1
12434 16577 16579 1
12435 16577 16580 1
12436 16581 16582 1
12437 16581 16583 1
12438 16581 16584 1
12439 16585 16586 1
12440 16585 16587 1
12441 16585 16588 1
12442 16589 16590 1
12443 16589 16591 1
12444 16589 16592 1
12445 16593 16594 1
12446 16593 16595 1
12447 16593 16596 1
12448 16597 16598 1
12449 16597 16599 1
12450 16597 16600 1
12451 16601 16602 1
12452 16601 16603 1
12453 16601 16604 1
12454 16605 16606 1
12455 16605 16607 1
12456 16605 16608 1
12457 16609 16610 1
12458 16609 16611 1
12459 16609 16612 1
12460 16613 16614 1
12461 16613 16615 1
12462 16613 16616 1
12463 16617 16618 1
12464 16617 16619 1
12465 16617 16620 1
12466 16621 16622 1
12467 16621 16623 1
12468 16621 16624 1
12469 16625 16626 1
12470 16625 16627 1
12471 16625 16628 1
12472 16629 16630 1
12473 16629 16631 1
12474 16629 16632 1
12475 16633 16634 1
12476 16633 16635 1
12477 16633 16636 1
12478 16637 16638 1
12479 16637 16639 1
12480 16637 16640 1
12481 16641 16642 1
12482 16641 16643 1
12483 16641 16644 1
12484 16645 16646 1
12485 16645 16647 1
12486 16645 16648 1
12487 16649 16650 1
12488 16649 16651 1
12489 16649 16652 1
12490 16653 16654 1
12491 16653 16655 1
12492 16653 16656 1
12493 16657 16658 1
12494 16657 16659 1
12495 16657 16660 1
12496 16661 16662 1
12497 16661 16663 1
12498 16661 16664 1
12499 16665 16666 1
12500 16665 16667 1
12501 16665 16668 1
12502 16669 16670 1
12503 16669 16671 1
12504 16669 16672 1
12505 16673 16674 1
12506 16673 16675 1
12507 16673 16676 1
12508 16677 16678 1
12509 16677 16679 1
12510 16677 16680 1
12511 16681 16682 1
12512 16681 16683 1
12513 16681 16684 1
12514 16685 16686 1
12515 16685 16687 1
12516 16685 16688 1
12517 16689 16690 1
12518 16689 16691 1
12519 16689 16692 1
12520 16693 16694 1
12521 16693 16695 1
12522 16693 16696 1
12523 16697 16698 1
12524 16697 16699 1
12525 16697 16700 1
12526 16701 16702 1
12527 16701 16703 1
12528 16701 16704 1
12529 16705 16706 1
12530 16705 16707 1
12531 16705 16708 1
12532 16709 16710 1
12533 16709 16711 1
12534 16709 16712 1
