@<TRIPOS>MOLECULE
mol
16712 12534
SMALL
USER_CHARGES


@<TRIPOS>ATOM
1 O 44.69208234416186 15.980637363270247 3.893630529459145 O 0.0 **** 0.0
2 H 44.79285111819256 15.251066044892553 3.282238153301499 H 0.0 **** 0.52
3 H 44.03919678445843 16.54840856541331 3.484235011771837 H 0.0 **** 0.52
4 M 44.621404271095365 15.959925304053257 3.7629574664982144 M 0.0 **** -1.04
5 O 47.55294368504276 39.22905158011999 40.06176159620636 O 0.0 **** 0.0
6 H 47.059044173547406 40.04043525233975 39.943655110724514 H 0.0 **** 0.52
7 H 48.41632295942093 39.51492685922768 40.36022462762965 H 0.0 **** 0.52
8 M 47.6002422355861 39.36951483960998 40.084849009789295 M 0.0 **** -1.04
9 H 46.179467513310904 38.07368360190248 39.73990414161887 H 0.0 **** 0.52
10 H 45.16480594326092 36.99648193962698 40.05926637681559 H 0.0 **** 0.52
11 M 45.57385876515657 37.502134881403165 39.47620923198096 M 0.0 **** -1.04
12 O 45.54003849634239 37.4907968897242 39.33051237301675 O 0.0 **** 0.0
13 O 34.275806934930245 31.037439344618313 21.01099535989303 O 0.0 **** 0.0
14 H 34.07117246287588 30.11978249804139 20.831384835327 H 0.0 **** 0.52
15 H 33.42192206939501 31.46101598136136 21.09870701677894 H 0.0 **** 0.52
16 M 34.14030283508549 30.974190391945687 20.999230674258097 M 0.0 **** -1.04
17 O 28.953264798822783 0.1739467827027982 36.08377499203398 O 0.0 **** 0.0
18 H 29.07413422887795 0.0890660156065825 37.0295092637791 H 0.0 **** 0.52
19 H 29.84213482405236 0.1979025998069541 35.729423741021364 H 0.0 **** 0.52
20 M 29.082524166114474 0.16614783881909367 36.15947943396211 M 0.0 **** -1.04
21 O 36.783675842689284 43.194752438505155 33.10053634015417 O 0.0 **** 0.0
22 H 37.51990558249002 42.585117066637935 33.050143786238735 H 0.0 **** 0.52
23 H 37.16066417356288 43.996968960244246 33.461865336518805 H 0.0 **** 0.52
24 M 36.926181605518714 43.219405949547976 33.140339966241015 M 0.0 **** -1.04
25 O 17.361362916582095 45.470616110717 19.85882888725188 O 0.0 **** 0.0
26 H 18.12415984294097 45.21718869935463 19.339075135181712 H 0.0 **** 0.52
27 H 17.7150832176512 45.6589229588194 20.72811070162723 H 0.0 **** 0.52
28 M 17.50429110623304 45.4622802250792 19.90357314993151 M 0.0 **** -1.04
29 O 1.777560324802651 31.03710516009935 37.957683232049746 O 0.0 **** 0.0
30 H 1.0243501776521278 31.116708333272733 38.542975226646924 H 0.0 **** 0.52
31 H 2.197405276095022 30.21692730255292 38.217045019813845 H 0.0 **** 0.52
32 M 1.7348861062557532 30.942302258515554 38.06580927182133 M 0.0 **** -1.04
33 O 19.919484601138606 33.69638015782156 6.153946885622816 O 0.0 **** 0.0
34 H 19.23780034194378 34.11311613718203 6.6810769255773605 H 0.0 **** 0.52
35 H 20.727152308726744 33.84386722777686 6.646033782526552 H 0.0 **** 0.52
36 M 19.93561220961375 33.76860770430281 6.284419369875904 M 0.0 **** -1.04
37 O 46.9571117729424 12.570876568644918 12.740648231844531 O 0.0 **** 0.0
38 H 46.87656720863342 11.705913515947403 12.338678195140787 H 0.0 **** 0.52
39 H 47.72744618211169 12.502596854239185 13.304697997660988 H 0.0 **** 0.52
40 M 47.04541435073904 12.45141012672694 12.761396850760704 M 0.0 **** -1.04
41 O 11.276350513175117 24.11290567522481 35.420885430313746 O 0.0 **** 0.0
42 H 10.477503332616173 23.745427555909167 35.79908206297591 H 0.0 **** 0.52
43 H 11.69772721841332 24.570647988689387 36.14830678540406 H 0.0 **** 0.52
44 M 11.228029403630728 24.12445999845164 35.56241812983998 M 0.0 **** -1.04
45 O 27.255754857093322 13.437355068793948 14.05845503975469 O 0.0 **** 0.0
46 H 26.467806870509524 13.63264979958987 14.565630491672152 H 0.0 **** 0.52
47 H 27.71262275658982 12.771086716453105 14.571863288957474 H 0.0 **** 0.52
48 M 27.213372805493268 13.377065265166983 14.189102964850193 M 0.0 **** -1.04
49 O 5.154108717986219 23.21772349566305 4.924736132490054 O 0.0 **** 0.0
50 H 5.320796990227876 23.35997503477901 5.85651318819464 H 0.0 **** 0.52
51 H 5.982911650910381 23.433124521581433 4.497047336354463 H 0.0 **** 0.52
52 M 5.281544757242926 23.2635075344022 4.989265991108375 M 0.0 **** -1.04
53 O 4.105214356770411 30.29681581918118 5.099140081688219 O 0.0 **** 0.0
54 H 4.760354400212336 29.849999892731777 4.563066802096671 H 0.0 **** 0.52
55 H 4.615944701036938 30.78482221728171 5.745076161606569 H 0.0 **** 0.52
56 M 4.254460567675551 30.302088283004405 5.113204770689023 M 0.0 **** -1.04
57 O 28.354451260230082 42.2430280054319 20.558764955430373 O 0.0 **** 0.0
58 H 27.42988801145625 41.99855665904103 20.51820421955027 H 0.0 **** 0.52
59 H 28.4667982292576 42.612479190213335 21.43461435051292 H 0.0 **** 0.52
60 M 28.250476667572308 42.25902664368118 20.66569183252779 M 0.0 **** -1.04
61 O 24.536896319473122 5.559419921953548 48.52934248078752 O 0.0 **** 0.0
62 H 24.75513679334795 4.629082057664199 48.58475307326785 H 0.0 **** 0.52
63 H 23.58134234859099 5.579052136796776 48.47679134886488 H 0.0 **** 0.52
64 M 24.442510509963714 5.442838600750193 48.52970831100478 M 0.0 **** -1.04
65 O 1.0379383552915513 7.482090620227353 3.6397598486030063 O 0.0 **** 0.0
66 H 1.114256523756893 6.610349104170382 4.027665950376814 H 0.0 **** 0.52
67 H 1.6036672851344136 8.034970274418043 4.178743562938976 H 0.0 **** 0.52
68 M 1.120127810748258 7.441272557030096 3.758413375118522 M 0.0 **** -1.04
69 O 11.597952501676655 14.449136407205238 9.543748837195203 O 0.0 **** 0.0
70 H 11.22345494664184 15.328453547136093 9.491004220940184 H 0.0 **** 0.52
71 H 10.948459660037447 13.94038658133928 10.029094473529675 H 0.0 **** 0.52
72 M 11.466868871315489 14.496573228217686 9.599127021072505 M 0.0 **** -1.04
73 O 25.646328374130945 7.303682376651757 12.85414331493811 O 0.0 **** 0.0
74 H 25.36912250289997 6.388164324052937 12.88894532658305 H 0.0 **** 0.52
75 H 26.353964933698776 7.315838601503181 12.209681744815295 H 0.0 **** 0.52
76 M 25.7014288755865 7.188040633509388 12.776099772820032 M 0.0 **** -1.04
77 O 37.357795943304396 34.50578797792264 29.542144185309876 O 0.0 **** 0.0
78 H 37.472005101038484 33.95651536380538 30.317698443949652 H 0.0 **** 0.52
79 H 36.850675963758036 33.964401922548106 28.93719764781693 H 0.0 **** 0.52
80 M 37.30749861261304 34.36617005648904 29.563984135284198 M 0.0 **** -1.04
81 O 8.040674167869383 25.51020128348904 19.244403916188865 O 0.0 **** 0.0
82 H 7.438111259125527 26.217363679285636 19.014037403358152 H 0.0 **** 0.52
83 H 8.867963312416812 25.755267973387713 18.829961056761285 H 0.0 **** 0.52
84 M 8.069441985499715 25.632098707526616 19.161860628807023 M 0.0 **** -1.04
85 O 38.54869724713957 24.61084634948015 18.120078317350625 O 0.0 **** 0.0
86 H 38.75284446712604 25.510981168828913 18.373671763689597 H 0.0 **** 0.52
87 H 37.6303474888028 24.495205669960654 18.363982927024917 H 0.0 **** 0.52
88 M 38.457270609566166 24.711271095637738 18.183763881862646 M 0.0 **** -1.04
89 O 2.5432463079249032 39.71024435315554 14.535626373686831 O 0.0 **** 0.0
90 H 2.3206868292485012 40.32222057236857 13.83407143718263 H 0.0 **** 0.52
91 H 3.488471878758922 39.58393498629526 14.453025412722276 H 0.0 **** 0.52
92 M 2.6357564968284777 39.772415734207144 14.435244935137803 M 0.0 **** -1.04
93 O 16.733903445389267 18.648775163676987 16.864169331636376 O 0.0 **** 0.0
94 H 15.945008793722048 18.572519292650583 17.400880395017595 H 0.0 **** 0.52
95 H 16.409823200622082 18.678185825049212 15.963983315069669 H 0.0 **** 0.52
96 M 16.59142831063446 18.64277780414531 16.817640043266096 M 0.0 **** -1.04
97 M 21.662179207040825 17.604323333595488 46.24220101882423 M 0.0 **** -1.04
98 O 21.627095448737506 17.709992387439414 46.34271577937229 O 0.0 **** 0.0
99 H 22.39639027834937 17.140462267930417 46.33565060576138 H 0.0 **** 0.52
100 H 21.13186968613511 17.454064383482205 45.56458942069718 H 0.0 **** 0.52
101 O 6.396776600770956 21.046787181904854 31.736249885368565 O 0.0 **** 0.0
102 H 6.147339059240096 21.968967817579276 31.67630402049779 H 0.0 **** 0.52
103 H 7.3220519408333615 21.032052529520406 31.491552128579787 H 0.0 **** 0.52
104 M 6.483292254466988 21.162951922705478 31.697251988575648 M 0.0 **** -1.04
105 O 3.0694285572974422 9.28767167124833 27.013058692179705 O 0.0 **** 0.0
106 H 2.3249242244552164 9.886814434893797 27.067548103117115 H 0.0 **** 0.52
107 H 3.4757684883703277 9.485915690567749 26.169367052414533 H 0.0 **** 0.52
108 M 3.0261390422693495 9.389747269070181 26.912030548635737 M 0.0 **** -1.04
109 O 9.846480151019717 46.379687487988036 40.22083526736175 O 0.0 **** 0.0
110 H 9.410475547170464 46.02970466679131 39.443892120971796 H 0.0 **** 0.52
111 H 10.24852829573498 45.61604082272372 40.63487576007662 H 0.0 **** 0.52
112 M 9.84213328783544 46.237128736622466 40.174379655617386 M 0.0 **** -1.04
113 O 19.19919673391044 27.123007356568458 30.93053165225357 O 0.0 **** 0.0
114 H 18.416077793069107 27.274025745861252 30.4012442358445 H 0.0 **** 0.52
115 H 19.444369274283545 26.216890451787755 30.74325740833935 H 0.0 **** 0.52
116 M 19.130332446936137 27.026344946021542 30.83880288538199 M 0.0 **** -1.04
117 O 26.608655336758375 21.71397715446362 6.4455315539604685 O 0.0 **** 0.0
118 H 27.17495365725621 22.479447170299313 6.347598216403781 H 0.0 **** 0.52
119 H 26.58250783149319 21.55391295005394 7.388889378240463 H 0.0 **** 0.52
120 M 26.67780136519731 21.791476802497602 6.553756294772053 M 0.0 **** -1.04
121 O 36.263191166151124 43.294479591981926 5.5718495800864005 O 0.0 **** 0.0
122 H 35.919834339533914 44.05817633940516 6.035640228060785 H 0.0 **** 0.52
123 H 35.90361665162394 42.544395319039175 6.0454606292992 H 0.0 **** 0.52
124 M 36.17320717271483 43.29622233722681 5.6918486692257275 M 0.0 **** -1.04
125 O 11.548766098024329 37.28741808841245 7.28866061235313 O 0.0 **** 0.0
126 H 11.215200693846484 36.40738548292764 7.463319212174751 H 0.0 **** 0.52
127 H 12.00425427020257 37.20943699976493 6.450402270503543 H 0.0 **** 0.52
128 M 11.564374159284691 37.1647799223635 7.2037125443948025 M 0.0 **** -1.04
129 O 36.86293715668245 27.085925116734444 40.16515548593661 O 0.0 **** 0.0
130 H 37.56547553488724 26.824215062067893 40.76028189808905 H 0.0 **** 0.52
131 H 37.19676967506207 27.870453389065702 39.73007033869774 H 0.0 **** 0.52
132 M 36.995604984556046 27.152852560790407 40.18564272675689 M 0.0 **** -1.04
133 O 37.548696730335 44.025368149828694 40.99418289617941 O 0.0 **** 0.0
134 H 36.74068134661477 43.55439955358164 40.79039928554821 H 0.0 **** 0.52
135 H 37.92585543931313 44.23568048127224 40.139929524892494 H 0.0 **** 0.52
136 M 37.49354197952565 43.99200045921036 40.858740520211 M 0.0 **** -1.04
137 O 14.43279390091888 30.826830595210616 49.977483643378214 O 0.0 **** 0.0
138 H 13.844440301202534 31.132086773954384 50.66805529389471 H 0.0 **** 0.52
139 H 14.111896513616042 31.25333187294175 49.18290903258987 H 0.0 **** 0.52
140 M 14.316398491592869 30.920504449440845 49.964170465114805 M 0.0 **** -1.04
141 O 34.08057492626177 32.4985872589886 42.503054547415914 O 0.0 **** 0.0
142 H 34.58661076904087 33.29359056378682 42.33534338858623 H 0.0 **** 0.52
143 H 34.330200441970305 32.23775729755308 43.38955552380682 H 0.0 **** 0.52
144 M 34.17730932350177 32.56696789724602 42.595068616900576 M 0.0 **** -1.04
145 O 22.22998693743403 45.057587933633144 35.10995306798719 O 0.0 **** 0.0
146 H 21.673022599377656 44.73692445337347 34.40059227384988 H 0.0 **** 0.52
147 H 21.84420985074356 45.89812821439469 35.35672665458398 H 0.0 **** 0.52
148 M 22.1093042902773 45.12413958378588 35.05073644260892 M 0.0 **** -1.04
149 O 16.72784699423288 38.27478229607524 4.59065661018448 O 0.0 **** 0.0
150 H 16.237249385686983 37.53282590231754 4.237040704405161 H 0.0 **** 0.52
151 H 17.56785129166395 38.24730008184373 4.132544180506692 H 0.0 **** 0.52
152 M 16.772576022536214 38.176284284721035 4.486745020035409 M 0.0 **** -1.04
153 O 27.454393850912997 31.299072259291243 28.25101681802768 O 0.0 **** 0.0
154 H 28.056887782851934 32.02446962810868 28.415414607215595 H 0.0 **** 0.52
155 H 27.853559730040057 30.81463237150972 27.52837270191219 H 0.0 **** 0.52
156 M 27.582619446369037 31.329917341489896 28.17955461077736 M 0.0 **** -1.04
157 O 2.893596326593972 25.829156287776936 22.97342198265566 O 0.0 **** 0.0
158 H 2.5895169825480266 26.736020983212768 23.010304523073003 H 0.0 **** 0.52
159 H 2.273438803910942 25.345703249102705 23.519229068676243 H 0.0 **** 0.52
160 M 2.775282561110515 25.883358834086422 23.048014188459568 M 0.0 **** -1.04
161 O 31.42724440522748 32.79887369311621 31.360654592902918 O 0.0 **** 0.0
162 H 31.25796806572831 32.8784819104212 30.421912629091434 H 0.0 **** 0.52
163 H 30.749855654630807 33.33494066448334 31.772970889311033 H 0.0 **** 0.52
164 M 31.318860304780635 32.87768770867158 31.29326557367593 M 0.0 **** -1.04
165 O 36.00497440603058 11.013889938022196 39.44027785177319 O 0.0 **** 0.0
166 H 35.58930256802063 10.930995721020068 38.58203855104243 H 0.0 **** 0.52
167 H 35.42159326824611 11.589429196110252 39.93489898612407 H 0.0 **** 0.52
168 M 35.8770833906761 11.07695503413072 39.39372969924896 M 0.0 **** -1.04
169 O 27.19704424131192 33.03816740516173 47.67017662226902 O 0.0 **** 0.0
170 H 27.80500820111045 33.26235406387055 48.37469683627882 H 0.0 **** 0.52
171 H 27.36343431255894 33.693012625061534 46.9921483271086 H 0.0 **** 0.52
172 M 27.296170789971846 33.150694863045096 47.673567603257375 M 0.0 **** -1.04
173 O 37.383856215944945 18.639533382905967 41.59849766151075 O 0.0 **** 0.0
174 H 36.90991815478784 17.82923442582566 41.411343436675004 H 0.0 **** 0.52
175 H 36.797220267675335 19.33488837153473 41.30089264623791 H 0.0 **** 0.52
176 M 37.24808966145269 18.62481962292634 41.53644289575858 M 0.0 **** -1.04
177 O 39.003294743139044 30.000789974070784 34.609228915570405 O 0.0 **** 0.0
178 H 39.7922437669657 29.55850007614213 34.295913425444276 H 0.0 **** 0.52
179 H 38.36370963352622 29.875967474927283 33.908102166575 H 0.0 **** 0.52
180 M 39.02241495473115 29.928192548792264 34.47936772437546 M 0.0 **** -1.04
181 O 17.65853542397261 19.48024591205929 10.95424117512559 O 0.0 **** 0.0
182 H 18.257935088758984 19.738577773478525 11.654393661605544 H 0.0 **** 0.52
183 H 17.525487673571646 20.279776442701774 10.445047705518775 H 0.0 **** 0.52
184 M 17.718234206877696 19.615665295445396 10.978686375472213 M 0.0 **** -1.04
185 O 30.65084112822612 23.344848712710238 10.50766502922022 O 0.0 **** 0.0
186 H 30.46692259686253 23.84958641249953 9.715426370772033 H 0.0 **** 0.52
187 H 30.45562527906027 22.439437727148555 10.266104893055367 H 0.0 **** 0.52
188 M 30.602307481301068 23.293557593619738 10.375325939014017 M 0.0 **** -1.04
189 O 33.17543544526208 19.238210064981402 18.069700839143767 O 0.0 **** 0.0
190 H 33.79290934142257 19.591441720953544 18.710155337554422 H 0.0 **** 0.52
191 H 32.91689872087139 18.389293300157494 18.428486151780902 H 0.0 **** 0.52
192 M 33.22138355939117 19.17475623421129 18.19761538443709 M 0.0 **** -1.04
193 O 45.36930291944218 5.8630922595242225 15.66184596043152 O 0.0 **** 0.0
194 H 46.26788643083205 5.856914939705106 15.99160238823822 H 0.0 **** 0.52
195 H 44.93294960065715 5.158706252085757 16.141078862333032 H 0.0 **** 0.52
196 M 45.428474185181315 5.77213156591948 15.765406763884215 M 0.0 **** -1.04
197 O 28.40183128826249 36.84542218863438 24.831157264221503 O 0.0 **** 0.0
198 H 28.17248559784803 37.163377202379095 23.957925465546182 H 0.0 **** 0.52
199 H 27.564433682046598 36.60092811868512 25.22513394876434 H 0.0 **** 0.52
200 M 28.26527427562685 36.854826309940734 24.769807014544288 M 0.0 **** -1.04
201 O 39.3967947237404 43.87071991207377 11.781697189853494 O 0.0 **** 0.0
202 H 40.12429065782552 43.633776131275674 11.206514478518443 H 0.0 **** 0.52
203 H 39.680862648613584 44.67978180705284 12.207083270070203 H 0.0 **** 0.52
204 M 39.52628777813612 43.94395840951646 11.762521276274159 M 0.0 **** -1.04
205 O 14.537703110357716 8.073174487537564 48.74919058649184 O 0.0 **** 0.0
206 H 13.654838449958397 8.26785651538666 49.063639181968654 H 0.0 **** 0.52
207 H 14.739837848238315 7.213498620113649 49.11841767178579 H 0.0 **** 0.52
208 M 14.450560672307905 7.988046951526323 48.83670944727287 M 0.0 **** -1.04
209 O 46.698558746441826 9.327851857923319 10.201182685828117 O 0.0 **** 0.0
210 H 47.14390415058337 9.620762365078628 9.406135902368325 H 0.0 **** 0.52
211 H 47.09879492369691 8.482018955616535 10.402690864913392 H 0.0 **** 0.52
212 M 46.8068037047826 9.25707153189485 10.1252021931466 M 0.0 **** -1.04
213 O 20.154647018347283 17.20425184608839 11.841635065795833 O 0.0 **** 0.0
214 H 19.655423360067918 17.05309987097889 11.039040966012047 H 0.0 **** 0.52
215 H 20.61322064267174 18.03011619849586 11.687081220079806 H 0.0 **** 0.52
216 M 20.149442981603574 17.290623856814154 11.719108346743374 M 0.0 **** -1.04
217 O 12.84597618121846 31.51900342940272 6.986301602739928 O 0.0 **** 0.0
218 H 12.883449472448227 32.459948530016824 6.814699308661254 H 0.0 **** 0.52
219 H 11.947118413854815 31.36355827085229 7.276334146037428 H 0.0 **** 0.52
220 M 12.735708085055586 31.6195576778949 7.001462155229753 M 0.0 **** -1.04
221 O 6.979661220094478 28.022107525303795 24.869623761673918 O 0.0 **** 0.0
222 H 6.495950093014734 27.581459714833212 25.568252224448432 H 0.0 **** 0.52
223 H 7.344469155199974 27.309989764620063 24.344236264098267 H 0.0 **** 0.52
224 M 6.964440675840187 27.874539830580417 24.89180081000444 M 0.0 **** -1.04
225 O 16.949697574068068 33.46486174380621 10.58700139537062 O 0.0 **** 0.0
226 H 17.12580003815356 32.824471565986194 9.897714324401633 H 0.0 **** 0.52
227 H 16.122674927388584 33.8726357103703 10.330130708401073 H 0.0 **** 0.52
228 M 16.866371017361345 33.43508394993347 10.465881028014493 M 0.0 **** -1.04
229 O 4.072900143483956 26.978626065667928 19.24246789685465 O 0.0 **** 0.0
230 H 3.7156627220850935 27.721757764009855 19.728641921111254 H 0.0 **** 0.52
231 H 4.952760273874532 27.258005310709475 18.98944205235804 H 0.0 **** 0.52
232 M 4.139801484643514 27.109520752529363 19.272314055677906 M 0.0 **** -1.04
233 O 35.13863325834839 20.272187869660637 19.66780710299951 O 0.0 **** 0.0
234 H 35.81908436090716 19.667244455852842 19.372413597887565 H 0.0 **** 0.52
235 H 35.094163044688656 20.139524286405468 20.614723363299838 H 0.0 **** 0.52
236 M 35.22004619474741 20.177764504332195 19.75121003129311 M 0.0 **** -1.04
237 O 13.515270549462443 20.88653843908175 27.16096900686418 O 0.0 **** 0.0
238 H 13.26612885255979 20.0300484844697 26.813720259586134 H 0.0 **** 0.52
239 H 14.426796344069317 20.998925610606893 26.891304669355574 H 0.0 **** 0.52
240 M 13.600064821818815 20.79128410866771 27.081996457665564 M 0.0 **** -1.04
241 O 25.44335745061965 24.18443421097678 8.976454292092832 O 0.0 **** 0.0
242 H 26.368938452387905 24.15709477368788 8.734004814600311 H 0.0 **** 0.52
243 H 25.047830398307383 24.78644576533168 8.346082323670744 H 0.0 **** 0.52
244 M 25.511210531544627 24.25799912759653 8.864722721877698 M 0.0 **** -1.04
245 O 44.206408795975435 17.167098425847332 26.348169744257262 O 0.0 **** 0.0
246 H 43.73341285771363 17.759835559992762 25.764075732948275 H 0.0 **** 0.52
247 H 43.57185446013165 16.48274528245647 26.560839762080704 H 0.0 **** 0.52
248 M 44.06462865556609 17.15537015736297 26.30062310951969 M 0.0 **** -1.04
249 O 13.375134115298065 2.007869530287408 43.86992361308475 O 0.0 **** 0.0
250 H 12.766382088747072 1.4247159702930077 43.416512563933125 H 0.0 **** 0.52
251 H 14.208990686651612 1.8838173100635416 43.41657711199877 H 0.0 **** 0.52
252 M 13.40394962510393 1.9173387249160996 43.753846943812036 M 0.0 **** -1.04
253 O 27.70922387864275 34.877474138805205 37.33270026746594 O 0.0 **** 0.0
254 H 28.47669607779985 35.422171231706415 37.50740119383781 H 0.0 **** 0.52
255 H 28.03285137902294 33.97897590442059 37.39747392645343 H 0.0 **** 0.52
256 M 27.848898321178467 34.832183126999894 37.36335632949278 M 0.0 **** -1.04
257 O 38.708484493403255 25.213175303909374 6.026833261209534 O 0.0 **** 0.0
258 H 38.839835381829964 24.381396083276293 6.481936206229051 H 0.0 **** 0.52
259 H 38.8493524769349 25.87957027859027 6.6993680741275545 H 0.0 **** 0.52
260 M 38.743331752018314 25.19200352883833 6.171185000323938 M 0.0 **** -1.04
261 O 42.14876375387493 28.225808243386435 26.230023726338345 O 0.0 **** 0.0
262 H 41.67874088317041 27.392060561673066 26.21689754086296 H 0.0 **** 0.52
263 H 42.870731367657996 28.0846836461594 26.84245774319794 H 0.0 **** 0.52
264 M 42.181015878673044 28.101012141152037 26.30674221578583 M 0.0 **** -1.04
265 O 34.06315716085919 40.56148093796554 39.89658492460618 O 0.0 **** 0.0
266 H 34.31250858202844 41.461717591696164 40.10545205493189 H 0.0 **** 0.52
267 H 33.73185379167314 40.206668530813204 40.721555121860284 H 0.0 **** 0.52
268 M 34.0526666937647 40.631302175860704 40.028929201743196 M 0.0 **** -1.04
269 O 40.04333047703371 10.083957982899145 21.762261687950453 O 0.0 **** 0.0
270 H 40.77043359302494 9.507701520018642 21.52672248700122 H 0.0 **** 0.52
271 H 40.25860715682859 10.921751806101096 21.352401065338746 H 0.0 **** 0.52
272 M 40.163967727655084 10.117438166965272 21.679642570093858 M 0.0 **** -1.04
273 O 10.238159696884146 33.452945030916815 37.843241509431316 O 0.0 **** 0.0
274 H 10.441807490101011 32.86484837764026 38.57049560390208 H 0.0 **** 0.52
275 H 11.008534801169418 33.40981091867598 37.276768625456 H 0.0 **** 0.52
276 M 10.362846743679842 33.37213877405158 37.86382313331745 M 0.0 **** -1.04
277 O 37.040740648837044 26.20396687681783 10.923393872389227 O 0.0 **** 0.0
278 H 37.001649855870134 26.23977352142643 9.967664228977611 H 0.0 **** 0.52
279 H 36.73947005179508 25.322366991468954 11.14304570838528 H 0.0 **** 0.52
280 M 36.99716976477397 26.09569397001707 10.82916696665702 M 0.0 **** -1.04
281 O 49.42590252921969 3.49847653861792 12.040794446299962 O 0.0 **** 0.0
282 H 49.944285467052126 4.272411249399224 12.261095789469989 H 0.0 **** 0.52
283 H 50.067125842210935 2.7908317682213086 11.975218791546908 H 0.0 **** 0.52
284 M 49.5743467011003 3.5069626234455007 12.060600615540613 M 0.0 **** -1.04
285 O 39.09621532321365 7.678982134464128 21.969755091826155 O 0.0 **** 0.0
286 H 38.61391733171829 8.057996077911874 22.70457875453783 H 0.0 **** 0.52
287 H 39.55994348020132 8.419797370773887 21.579399600155554 H 0.0 **** 0.52
288 M 39.09383773720573 7.822333772188763 22.013851376459282 M 0.0 **** -1.04
289 O 15.099317690305508 2.8072662676441924 46.55887831670213 O 0.0 **** 0.0
290 H 14.435871373037411 2.8070164341469197 45.868902025548884 H 0.0 **** 0.52
291 H 15.9226505310476 2.6400324411812885 46.10020062029529 H 0.0 **** 0.52
292 M 15.11978448362195 2.785825616797015 46.41183581442612 M 0.0 **** -1.04
293 O 2.753984383085453 19.854867260871284 20.163579154499814 O 0.0 **** 0.0
294 H 1.9120756745307532 19.986180811803337 20.599670072114577 H 0.0 **** 0.52
295 H 2.5629155203017455 19.971249549060484 19.232893530727154 H 0.0 **** 0.52
296 M 2.6217507031669744 19.886575699942863 20.100265274284993 M 0.0 **** -1.04
297 O 12.937606124862263 1.7611173289319506 9.318910207028724 O 0.0 **** 0.0
298 H 12.442654432416518 1.7823183207115791 10.137935049632484 H 0.0 **** 0.52
299 H 13.074805171122076 0.8298179544878579 9.145452605964667 H 0.0 **** 0.52
300 M 12.891808873445694 1.6446132093199826 9.401550874270338 M 0.0 **** -1.04
301 O 12.670490668979701 16.595800086068003 31.993884182338828 O 0.0 **** 0.0
302 H 13.140550614158835 17.105203809099635 32.65401998331974 H 0.0 **** 0.52
303 H 12.544662698380675 17.204393427399385 31.265866209089506 H 0.0 **** 0.52
304 M 12.714556083227983 16.738917807415078 31.985194481105506 M 0.0 **** -1.04
305 O 11.579435485765115 49.48909536675961 47.64361895730193 O 0.0 **** 0.0
306 H 11.394062787847332 49.568324338100126 46.707889976939256 H 0.0 **** 0.52
307 H 10.778197814453302 49.78860085965613 48.073204145200904 H 0.0 **** 0.52
308 M 11.45313651951024 49.537577754333924 47.57882703839181 M 0.0 **** -1.04
309 O 16.761754691393236 43.221263311666576 0.6278289233437572 O 0.0 **** 0.0
310 H 16.910236876519374 44.02448011366764 0.12880525898191575 H 0.0 **** 0.52
311 H 16.993633944849897 43.451384276010586 1.5275536172910473 H 0.0 **** 0.52
312 M 16.810445683847888 43.353544075505845 0.6791237196088171 M 0.0 **** -1.04
313 O 25.305652888523294 44.54515117197753 21.134571306512 O 0.0 **** 0.0
314 H 24.50134809498059 44.61381549452309 21.648971881974205 H 0.0 **** 0.52
315 H 25.37389917997531 43.61507629086143 20.918857186848527 H 0.0 **** 0.52
316 M 25.211428004490934 44.434879554006976 21.172806960949345 M 0.0 **** -1.04
317 O 19.275788069658297 7.979571909824799 20.783381335332738 O 0.0 **** 0.0
318 H 19.12974989480013 7.287143453324809 21.427931698147383 H 0.0 **** 0.52
319 H 18.45596372811915 8.026386770012905 20.2915219429696 H 0.0 **** 0.52
320 M 19.152145702366298 7.896925948832369 20.802928564473383 M 0.0 **** -1.04
321 O 22.786173898859204 22.898596541684327 38.541295148861394 O 0.0 **** 0.0
322 H 23.056393620840467 22.495960622166223 39.3665801406249 H 0.0 **** 0.52
323 H 23.370270516437756 22.517420597676562 37.885731013580205 H 0.0 **** 0.52
324 M 22.895537094509734 22.798258983608022 38.56302192720952 M 0.0 **** -1.04
325 O 2.777639535591227 44.62123329370939 35.83907649082079 O 0.0 **** 0.0
326 H 2.032491754949106 45.073563213371095 36.234527349369515 H 0.0 **** 0.52
327 H 2.923590350273024 43.86127768019646 36.402454377998566 H 0.0 **** 0.52
328 M 2.700934566582717 44.581853934196516 35.96181915713841 M 0.0 **** -1.04
329 O 22.42756502742965 28.068003308478026 9.36451845015731 O 0.0 **** 0.0
330 H 21.51162812461652 27.866800593037198 9.172670407706155 H 0.0 **** 0.52
331 H 22.64392699861763 28.78878819260882 8.773007241068905 H 0.0 **** 0.52
332 M 22.338010392198086 28.134516687676438 9.264238022844077 M 0.0 **** -1.04
333 O 29.23908718576264 47.33443911744171 18.0779321710188 O 0.0 **** 0.0
334 H 29.990582718630353 47.39600020815822 18.667587165841226 H 0.0 **** 0.52
335 H 29.04008942649586 46.39893735580271 18.03963602337315 H 0.0 **** 0.52
336 M 29.309814216145305 47.222563308683505 18.14851246949476 M 0.0 **** -1.04
337 O 47.22818321243624 43.15826527089756 32.217677033126925 O 0.0 **** 0.0
338 H 47.760550580781086 43.89319297609168 32.5221355959806 H 0.0 **** 0.52
339 H 46.94191279438011 42.7208778890204 33.01953196105894 H 0.0 **** 0.52
340 M 47.25968681632253 43.196353698940726 32.35929890150318 M 0.0 **** -1.04
341 O 12.30820768293475 21.052007758976668 19.99907856288342 O 0.0 **** 0.0
342 H 12.03616990513585 20.373355262232906 19.381295860404894 H 0.0 **** 0.52
343 H 11.74320742591059 21.798494935038686 19.79967799516467 H 0.0 **** 0.52
344 M 12.20105594675433 21.060691719013153 19.894468413807882 M 0.0 **** -1.04
345 O 0.28230130817830457 43.969303870160665 22.27015746118758 O 0.0 **** 0.0
346 H -0.5588696943161295 43.5847448263135 22.023635049535226 H 0.0 **** 0.52
347 H 0.49257831333672186 43.56660435971649 23.112680673837325 H 0.0 **** 0.52
348 M 0.20153863137191053 43.868524707755 22.34645304676026 M 0.0 **** -1.04
349 O 6.20961176656337 36.70031052803656 20.20191549536216 O 0.0 **** 0.0
350 H 6.474967107562016 35.834388899159606 20.51174464859397 H 0.0 **** 0.52
351 H 5.5688399742018575 36.9999714549601 20.846776190915797 H 0.0 **** 0.52
352 M 6.161553472418696 36.627822179848756 20.324127516010307 M 0.0 **** -1.04
353 O 21.306652652013312 14.950560025561899 25.15440191186321 O 0.0 **** 0.0
354 H 20.734218964644953 15.377565143174479 25.791751574417177 H 0.0 **** 0.52
355 H 22.19183500400311 15.111502696077793 25.481171480068607 H 0.0 **** 0.52
356 M 21.346688337167166 15.025824677821191 25.277820831869533 M 0.0 **** -1.04
357 O 42.60875624775531 4.893423969069435 35.88429812834796 O 0.0 **** 0.0
358 H 41.73600501775999 5.192624926792082 35.629323068423744 H 0.0 **** 0.52
359 H 42.53419692587583 3.93985890395317 35.921483839495835 H 0.0 **** 0.52
360 M 42.487488565156184 4.8096575601504306 35.85641891372762 M 0.0 **** -1.04
361 O 40.714744000448945 49.09765860724486 42.16582834014855 O 0.0 **** 0.0
362 H 40.028227300595454 48.586444432299544 42.594295835040406 H 0.0 **** 0.52
363 H 41.526196675806254 48.805069436527006 42.58075614755453 H 0.0 **** 0.52
364 M 40.73073754500824 48.99476125620067 42.27379378258505 M 0.0 **** -1.04
365 O 37.59873936945047 41.125506336459736 25.881015720347293 O 0.0 **** 0.0
366 H 37.33737933100481 41.95564874181408 26.27949000547332 H 0.0 **** 0.52
367 H 36.92516708583358 40.504078957491025 26.157344032615015 H 0.0 **** 0.52
368 M 37.47905663918057 41.15222418621906 25.967399201530867 M 0.0 **** -1.04
369 O 19.818870283066335 46.271564174794754 15.839108893184061 O 0.0 **** 0.0
370 H 20.096305390749713 46.734548272922844 15.048600798701756 H 0.0 **** 0.52
371 H 19.409168305031017 46.94597412896631 16.380905183673477 H 0.0 **** 0.52
372 M 19.801938712097673 46.417164760939094 15.807270791482594 M 0.0 **** -1.04
373 O 7.894480186287662 48.851927436443475 7.383029110948457 O 0.0 **** 0.0
374 H 8.576776186604016 48.81872499630049 6.712509340952863 H 0.0 **** 0.52
375 H 7.745326720481834 47.936389733655226 7.619189021615821 H 0.0 **** 0.52
376 M 7.962728958324077 48.73047736075249 7.327426157706955 M 0.0 **** -1.04
377 O 23.843605695210627 28.456150798056896 0.4277563567194981 O 0.0 **** 0.0
378 H 23.502350295639715 28.62724984717261 -0.45002421168363327 H 0.0 **** 0.52
379 H 24.38844108479951 27.675808015268565 0.3255369728315413 H 0.0 **** 0.52
380 M 23.86966712274806 28.378160183922596 0.30230406502397256 M 0.0 **** -1.04
381 O 43.397221346156854 11.24963488304449 27.33213261961741 O 0.0 **** 0.0
382 H 44.23807948765996 11.690893089678235 27.211808234505625 H 0.0 **** 0.52
383 H 43.597347301867046 10.50084304751808 27.8938174444839 H 0.0 **** 0.52
384 M 43.53048054362748 11.210266514543672 27.388633154810208 M 0.0 **** -1.04
385 O 41.987479613617374 34.39198725537197 41.725446705619916 O 0.0 **** 0.0
386 H 41.32731931363079 35.043410731870665 41.48866658801607 H 0.0 **** 0.52
387 H 41.89853305906661 33.707978045233254 41.06178344224799 H 0.0 **** 0.52
388 M 41.89158453085268 34.3878157681456 41.61017935877405 M 0.0 **** -1.04
389 O 47.873641254929986 6.580952215448583 37.48401221516409 O 0.0 **** 0.0
390 H 47.07690248296766 6.8298310440184835 37.95251474173542 H 0.0 **** 0.52
391 H 47.72348975604088 6.871002040898624 36.58425945232819 H 0.0 **** 0.52
392 M 47.75242759199671 6.649941554909972 37.4288064257487 M 0.0 **** -1.04
393 O 10.223732653805163 31.51603616082992 7.772084509938363 O 0.0 **** 0.0
394 H 10.171800275985477 31.559536825474552 8.726882744648796 H 0.0 **** 0.52
395 H 9.485804647769742 30.96249679329204 7.516574934282098 H 0.0 **** 0.52
396 M 10.122621225923377 31.450744309563277 7.861602367435471 M 0.0 **** -1.04
397 O 39.68695664022394 36.488763572853124 41.51215560818457 O 0.0 **** 0.0
398 H 38.9810726390434 35.84305760491175 41.48021307583845 H 0.0 **** 0.52
399 H 39.85800712935802 36.61133990547213 42.445936687697916 H 0.0 **** 0.52
400 M 39.61849089300806 36.421796661722965 41.627603188357746 M 0.0 **** -1.04
401 O 9.35190140625306 5.976229062389193 35.42516083072409 O 0.0 **** 0.0
402 H 8.66726924731476 5.318215803495247 35.54568099098887 H 0.0 **** 0.52
403 H 9.364501101229342 6.139493712044493 34.48207270813244 H 0.0 **** 0.52
404 M 9.265872715255904 5.912894987258286 35.31986209066216 M 0.0 **** -1.04
405 O 19.720569187643743 0.6124388119364407 18.820655013984705 O 0.0 **** 0.0
406 H 20.661573995662152 0.6322993375011656 18.994848876588804 H 0.0 **** 0.52
407 H 19.32342059127739 0.4177037405532336 19.6695246045456 H 0.0 **** 0.52
408 M 19.790189799803894 0.5900523164335164 18.951620138928536 M 0.0 **** -1.04
409 O 26.05651737707053 6.446758262999985 8.239632909217367 O 0.0 **** 0.0
410 H 25.251347031874246 6.933869095637334 8.414709014960646 H 0.0 **** 0.52
411 H 26.437578105339384 6.294241238565029 9.104363925309128 H 0.0 **** 0.52
412 M 26.00222576198828 6.489589994414757 8.37274072328094 M 0.0 **** -1.04
413 O 9.27321618640849 39.581878503260555 49.732581062778 O 0.0 **** 0.0
414 H 8.594024618112861 38.922739867731956 49.58953148286161 H 0.0 **** 0.52
415 H 10.093618300344971 39.08911660940675 49.713750887478376 H 0.0 **** 0.52
416 M 9.291293108455228 39.43442077619162 49.71185894408871 M 0.0 **** -1.04
417 O 28.012409708501867 5.318414244598863 31.72714073856748 O 0.0 **** 0.0
418 H 27.73689992670676 5.960750592133884 32.381148582063986 H 0.0 **** 0.52
419 H 27.846147131498324 4.470380868600671 32.13875325940551 H 0.0 **** 0.52
420 M 27.955856889650825 5.29208254201361 31.863553399636658 M 0.0 **** -1.04
421 O 23.76179354730537 32.98077135671613 38.59797792519983 O 0.0 **** 0.0
422 H 23.16660977325319 32.876218017698704 39.34030757908897 H 0.0 **** 0.52
423 H 23.76535347996504 33.922008241094915 38.42394482451709 H 0.0 **** 0.52
424 M 23.68605816416825 33.087876747272716 38.67072651519845 M 0.0 **** -1.04
425 O 40.6008410090625 19.782058676614447 6.378117962217946 O 0.0 **** 0.0
426 H 41.3794889256543 19.320498718308308 6.689404202674998 H 0.0 **** 0.52
427 H 40.883556819034226 20.212552558423077 5.571287248529151 H 0.0 **** 0.52
428 M 40.736708702517035 19.778081943246043 6.314682521145416 M 0.0 **** -1.04
429 O 17.63722552972398 18.368090342925868 37.14390141967593 O 0.0 **** 0.0
430 H 16.805833647674444 18.832258504984146 37.04610554735671 H 0.0 **** 0.52
431 H 17.39119671260545 17.444928948364407 37.2028141162677 H 0.0 **** 0.52
432 M 17.49930200837127 18.30933381139769 37.13892385104761 M 0.0 **** -1.04
433 O 21.4147624401923 1.5569255795063195 7.932449720419662 O 0.0 **** 0.0
434 H 22.264359785990568 1.9922963760611094 8.002213664123822 H 0.0 **** 0.52
435 H 21.496725184458786 0.9925256836021569 7.163708577051459 H 0.0 **** 0.52
436 M 21.534014156122545 1.5404085680787944 7.8429722164133295 M 0.0 **** -1.04
437 O 17.23325972059223 26.83605699679023 19.796707021385334 O 0.0 **** 0.0
438 H 16.828188058618935 27.70329378418911 19.80341485479856 H 0.0 **** 0.52
439 H 16.854488520496176 26.40015810459936 19.03332379036345 H 0.0 **** 0.52
440 M 17.132918515663164 26.891273305209264 19.699843176928514 M 0.0 **** -1.04
441 O 37.01935001481528 4.980217620569064 47.746924768968604 O 0.0 **** 0.0
442 H 37.12139664943909 5.052682840464115 46.797943778802434 H 0.0 **** 0.52
443 H 37.72174673431205 4.389790363155235 48.01943830708775 H 0.0 **** 0.52
444 M 37.12232855236945 4.913911277632465 47.66032804874443 M 0.0 **** -1.04
445 O 36.785480513629636 43.78122972833114 9.905480649476097 O 0.0 **** 0.0
446 H 37.3971702378222 43.664127966904076 10.632358971648664 H 0.0 **** 0.52
447 H 36.21141835218654 43.016536203129085 9.949343999939025 H 0.0 **** 0.52
448 M 36.790297589004275 43.66834939746787 10.004145377043997 M 0.0 **** -1.04
449 O 30.652060874598973 19.359435876900076 40.35122620090066 O 0.0 **** 0.0
450 H 30.32806648696118 20.071227096316 40.9031413162731 H 0.0 **** 0.52
451 H 29.979222582927655 18.681541596934828 40.41429101249312 H 0.0 **** 0.52
452 M 30.52445331820089 19.363775760617095 40.42995176295301 M 0.0 **** -1.04
453 O 17.906085099093357 29.27866888521976 39.14805704505016 O 0.0 **** 0.0
454 H 17.138513233115447 28.707058382935923 39.13003430739213 H 0.0 **** 0.52
455 H 18.062731102224095 29.44086891663647 40.07831579228894 H 0.0 **** 0.52
456 M 17.82787883686171 29.226258474077298 39.264834368296796 M 0.0 **** -1.04
457 O 35.80302877039742 5.294013542144929 34.06968617684501 O 0.0 **** 0.0
458 H 35.218522271842104 5.100222459300828 34.80250719934729 H 0.0 **** 0.52
459 H 36.6512086821792 5.46661666632862 34.47837689876618 H 0.0 **** 0.52
460 M 35.83678211300733 5.291300825774982 34.215814492668954 M 0.0 **** -1.04
461 O 43.996286532278106 18.45180067734336 28.989560348303392 O 0.0 **** 0.0
462 H 43.72264759531748 18.27918310891008 28.08869766606738 H 0.0 **** 0.52
463 H 43.85707725745771 17.621953410740275 29.445853355733465 H 0.0 **** 0.52
464 M 43.943436456165045 18.323473137970254 28.932649172535417 M 0.0 **** -1.04
465 O 4.5392918779339055 38.91749179734804 44.399302370808606 O 0.0 **** 0.0
466 H 3.600481579587864 38.932238955230495 44.585439179539335 H 0.0 **** 0.52
467 H 4.675558274345903 39.64692111988786 43.7946609410069 H 0.0 **** 0.52
468 M 4.436555767689065 39.012755863182804 44.345728975093905 M 0.0 **** -1.04
469 O 19.95848567944867 14.513572409032188 15.35830912114993 O 0.0 **** 0.0
470 H 20.273692619269312 13.782348635895554 15.8895203860218 H 0.0 **** 0.52
471 H 19.095693195606273 14.233689291567055 15.052560106832473 H 0.0 **** 0.52
472 M 19.88838778531651 14.384138589575906 15.387170906267883 M 0.0 **** -1.04
473 O 44.176686947346234 2.4956533537017904 25.998839980182126 O 0.0 **** 0.0
474 H 43.88802992983557 2.085483881634623 25.18356919174942 H 0.0 **** 0.52
475 H 45.05538808118839 2.1455594983923376 26.145628746311434 H 0.0 **** 0.52
476 M 44.25221983703703 2.3983305127782586 25.913265955136275 M 0.0 **** -1.04
477 O 20.63420467465165 12.171313164100374 19.603431971170163 O 0.0 **** 0.0
478 H 20.946365036695827 11.832789988644473 20.442590446893075 H 0.0 **** 0.52
479 H 19.710428492770482 11.92244357291687 19.572926200533736 H 0.0 **** 0.52
480 M 20.555909817871555 12.096119337010812 19.70694908762637 M 0.0 **** -1.04
481 O 27.12513284676245 42.821719658540516 24.324565710716794 O 0.0 **** 0.0
482 H 26.306151247832233 43.213438454871834 24.627969237861787 H 0.0 **** 0.52
483 H 26.85181097797952 42.061519008862014 23.811128052457327 H 0.0 **** 0.52
484 M 26.985304244834843 42.77454898923073 24.297678547444566 M 0.0 **** -1.04
485 O 0.7975708100740775 4.117285671587778 36.229374002738936 O 0.0 **** 0.0
486 H 1.5158251959420568 3.8766447832216024 35.644198530059434 H 0.0 **** 0.52
487 H 1.1791190645341345 4.078107930454075 37.10636641057327 H 0.0 **** 0.52
488 M 0.9383591120301844 4.0814656097245425 36.26673086906127 M 0.0 **** -1.04
489 O 18.50659420561592 28.464515045149895 34.63911013783052 O 0.0 **** 0.0
490 H 19.3197080872391 28.96404707959516 34.56466980195598 H 0.0 **** 0.52
491 H 18.782185229143224 27.549053741051978 34.59212432213068 H 0.0 **** 0.52
492 M 18.645962018856103 28.41127096904316 34.62356583722868 M 0.0 **** -1.04
493 O 44.47200213268651 13.586259056543277 2.8495553897802877 O 0.0 **** 0.0
494 H 43.799099972653714 13.84256099542317 3.48022235141556 H 0.0 **** 0.52
495 H 44.57425890149654 12.643201037632487 2.9776719122597535 H 0.0 **** 0.52
496 M 44.398951911527966 13.49834556924013 2.9466884068027106 M 0.0 **** -1.04
497 O 16.34068458685443 36.17962935981765 11.933796585661348 O 0.0 **** 0.0
498 H 15.650015863287216 35.62072488220295 11.577664765322332 H 0.0 **** 0.52
499 H 16.697673038905343 35.68112904711928 12.668837578468299 H 0.0 **** 0.52
500 M 16.297969619938048 36.0442687465344 11.982301437706354 M 0.0 **** -1.04
501 O 39.766977807491664 29.250971752219716 9.504918001034795 O 0.0 **** 0.0
502 H 39.4942157547431 29.363224447100183 10.41553801110395 H 0.0 **** 0.52
503 H 39.19796202093185 29.840122409929783 9.009588990002342 H 0.0 **** 0.52
504 M 39.659219451124045 29.34076024332028 9.558081181054726 M 0.0 **** -1.04
505 O 40.52254175421867 48.08628347284059 31.325376094272677 O 0.0 **** 0.0
506 H 40.96826366191245 48.08853802891489 32.172462766694395 H 0.0 **** 0.52
507 H 41.159216153387796 48.46336167856018 30.718179969134596 H 0.0 **** 0.52
508 M 40.66110143282272 48.13484328356861 31.35608486196529 M 0.0 **** -1.04
509 O 5.492072696185112 38.61518832806575 1.5720906925669738 O 0.0 **** 0.0
510 H 5.638906913484668 38.25630279210264 2.4472305871559286 H 0.0 **** 0.52
511 H 4.573913744475284 38.420756020864204 1.3839152348763548 H 0.0 **** 0.52
512 M 5.393333133275242 38.544356959131136 1.6600307472474682 M 0.0 **** -1.04
513 O 38.03065182602241 26.124420533584377 37.32673964155841 O 0.0 **** 0.0
514 H 37.76713990594381 26.81437119253984 36.717839221121935 H 0.0 **** 0.52
515 H 37.22361817515726 25.642296031596214 37.50696276884025 H 0.0 **** 0.52
516 M 37.89360835918693 26.15102550783551 37.27186314636406 M 0.0 **** -1.04
517 O 38.629906803704316 39.419894207283114 2.2713386046656967 O 0.0 **** 0.0
518 H 39.28244061975246 40.01295028380827 1.8988970076901643 H 0.0 **** 0.52
519 H 37.88265098676864 39.98246024108505 2.474701228384071 H 0.0 **** 0.52
520 M 38.61778180573095 39.567828660320345 2.2496942208737583 M 0.0 **** -1.04
521 O 23.82179535866102 40.60020128304314 47.217686462356994 O 0.0 **** 0.0
522 H 22.878771024233583 40.76385439556519 47.23000302641116 H 0.0 **** 0.52
523 H 24.008165428707382 40.206296323492026 48.069938595726285 H 0.0 **** 0.52
524 M 23.72493419010284 40.570726642942034 47.32836164137861 M 0.0 **** -1.04
525 O 36.73638919953635 26.097897807624474 8.050941426902382 O 0.0 **** 0.0
526 H 36.31925867616229 25.430988560072883 7.505539548395719 H 0.0 **** 0.52
527 H 36.4677153629294 26.929586669334928 7.6606386264916955 H 0.0 **** 0.52
528 M 36.648597047422925 26.118991519236946 7.93115925161857 M 0.0 **** -1.04
529 O 37.45615300017897 47.227831028046616 13.688140139953532 O 0.0 **** 0.0
530 H 36.90700668837755 47.53961272787415 14.407486116839806 H 0.0 **** 0.52
531 H 38.346094162802004 47.246420095947435 14.040117987908033 H 0.0 **** 0.52
532 M 37.49977935208577 47.270122463448295 13.825283101916568 M 0.0 **** -1.04
533 O 0.7840397775059742 0.8298186575996044 39.33493682463888 O 0.0 **** 0.0
534 H 0.06443335098063585 0.20732505423167302 39.23054706820144 H 0.0 **** 0.52
535 H 1.0745995453261372 1.0127935812443556 38.44144769641509 H 0.0 **** 0.52
536 M 0.7291166053291036 0.7735543362926999 39.207196059356626 M 0.0 **** -1.04
537 O 44.80368030809429 36.20529433028548 18.228847387778416 O 0.0 **** 0.0
538 H 45.463286782662955 36.81524892959402 18.55915673696812 H 0.0 **** 0.52
539 H 43.9707313688065 36.65819615755344 18.360396519574664 H 0.0 **** 0.52
540 M 44.78149003896364 36.34135320602047 18.28797109628553 M 0.0 **** -1.04
541 O 3.5023297957035533 35.77622878075632 29.862597976417863 O 0.0 **** 0.0
542 H 2.7636359677769757 36.1306711250692 29.36769531314647 H 0.0 **** 0.52
543 H 3.6990597169675152 36.448707424771584 30.514747310372744 H 0.0 **** 0.52
544 M 3.4329513426942966 35.90768703054435 29.882727580827996 M 0.0 **** -1.04
545 O 20.310869844839374 3.2419137561585654 4.406674991312933 O 0.0 **** 0.0
546 H 19.457591355067034 2.822136288092339 4.297449733227225 H 0.0 **** 0.52
547 H 20.93493801465476 2.5163147206014207 4.423195904422428 H 0.0 **** 0.52
548 M 20.281527718603044 3.0952916172505214 4.394807727561712 M 0.0 **** -1.04
549 O 24.876415164879475 38.373068175590795 46.11845589343325 O 0.0 **** 0.0
550 H 24.15435893775274 38.06476973593293 46.666010247331755 H 0.0 **** 0.52
551 H 24.702769661929736 39.306304514524676 45.99539273988264 H 0.0 **** 0.52
552 M 24.76175441714223 38.453067852052015 46.17279625619837 M 0.0 **** -1.04
553 O 47.19467813559308 2.2503256199563704 20.74121514497063 O 0.0 **** 0.0
554 H 47.08796224858595 2.4041867612019563 21.67992088877262 H 0.0 **** 0.52
555 H 47.049770293651505 1.3102420645417994 20.634110290118496 H 0.0 **** 0.52
556 M 47.16246654379742 2.1496794696337864 20.84767042318751 M 0.0 **** -1.04
557 O 18.34632585424343 36.10936440107459 10.112762024674975 O 0.0 **** 0.0
558 H 19.069107468335183 35.74441080662897 10.623275249640601 H 0.0 **** 0.52
559 H 17.591562929945013 36.0651897086934 10.699797271025814 H 0.0 **** 0.52
560 M 18.342231399877395 36.05699149932719 10.253262610043835 M 0.0 **** -1.04
561 O 47.84392161166853 18.398363167350027 43.27750433160145 O 0.0 **** 0.0
562 H 47.02198020679708 17.93938799988977 43.45065931966335 H 0.0 **** 0.52
563 H 48.17999024636535 17.995065483212407 42.47710663647472 H 0.0 **** 0.52
564 M 47.78172422037392 18.287981368510113 43.197209592184656 M 0.0 **** -1.04
565 O 6.748316425546951 13.610536981261077 19.1993658490984 O 0.0 **** 0.0
566 H 6.7163702331371695 13.266704383057366 18.30662476230995 H 0.0 **** 0.52
567 H 5.956432001638256 14.142140553366971 19.28027726184277 H 0.0 **** 0.52
568 M 6.642855586677726 13.634574378411685 19.09544190965599 M 0.0 **** -1.04
569 O 49.21273046134697 8.976171693194592 36.12666487928084 O 0.0 **** 0.0
570 H 49.583069147213045 8.096087957791818 36.05935429869822 H 0.0 **** 0.52
571 H 49.307606250920315 9.344300446305445 35.24819523634618 H 0.0 **** 0.52
572 M 49.27228336103308 8.910635427162436 36.005592982052335 M 0.0 **** -1.04
573 O 39.403178117441726 36.84408821543974 34.51238716221682 O 0.0 **** 0.0
574 H 38.784151698108275 37.20480793964065 33.87763019476097 H 0.0 **** 0.52
575 H 40.08196949734324 37.514130356494306 34.59308912284703 H 0.0 **** 0.52
576 M 39.41082821730708 36.97603825452035 34.44146148675525 M 0.0 **** -1.04
577 O 14.75033229104055 20.4473957183588 20.522025246178327 O 0.0 **** 0.0
578 H 14.912400781780628 20.90955641917569 21.344442915290468 H 0.0 **** 0.52
579 H 13.810097543335672 20.546355960904112 20.372380556416545 H 0.0 **** 0.52
580 M 14.650717553919147 20.519226303135163 20.6081488378819 M 0.0 **** -1.04
581 O 31.15250650181341 12.60523331648759 14.28239630427651 O 0.0 **** 0.0
582 H 30.33296757530562 12.261327232846305 14.637802586753338 H 0.0 **** 0.52
583 H 31.653270110567806 12.875347825038395 15.052138523031374 H 0.0 **** 0.52
584 M 31.111699025077137 12.595787010566108 14.426429537212023 M 0.0 **** -1.04
585 O 12.348540402954296 47.948524865933095 16.75433631641809 O 0.0 **** 0.0
586 H 11.562630990027868 47.52607436617188 16.407766713874807 H 0.0 **** 0.52
587 H 12.789411419842159 47.261758430284516 17.254548720042493 H 0.0 **** 0.52
588 M 12.304371069070639 47.80653140565755 16.774004657279704 M 0.0 **** -1.04
589 O 41.929468689951435 10.696860249802686 45.289851195153666 O 0.0 **** 0.0
590 H 41.42544501707127 10.034527688464888 44.81708866931466 H 0.0 **** 0.52
591 H 42.81167412345056 10.63357574217893 44.92387529561787 H 0.0 **** 0.52
592 M 41.97788073697498 10.603971817281666 45.18248161461631 M 0.0 **** -1.04
593 O 45.07418836548927 10.901712890428044 3.048264593712706 O 0.0 **** 0.0
594 H 44.22138763955683 10.475956298233257 2.960565167738065 H 0.0 **** 0.52
595 H 45.486926691230146 10.790969175498384 2.1917529140540544 H 0.0 **** 0.52
596 M 45.01785467156586 10.833033426279279 2.927393508890202 M 0.0 **** -1.04
597 O 15.54216106760541 43.05015215997093 32.13654594773721 O 0.0 **** 0.0
598 H 14.978789263409364 42.2876788846893 32.268747627830635 H 0.0 **** 0.52
599 H 15.11375128580168 43.547137080625596 31.439625493620625 H 0.0 **** 0.52
600 M 15.41520012596069 43.01616623950882 32.06425530778976 M 0.0 **** -1.04
601 O 11.472134449211044 40.79701542863311 1.6204597936906708 O 0.0 **** 0.0
602 H 10.521583488169265 40.738226245962146 1.7165098377420875 H 0.0 **** 0.52
603 H 11.621524980273547 40.746519954199194 0.6763411786568341 H 0.0 **** 0.52
604 M 11.369575924247425 40.78302588027576 1.5118961544965757 M 0.0 **** -1.04
605 O 43.10502698522643 20.28187641504705 47.17750479048988 O 0.0 **** 0.0
606 H 43.76076787080645 20.935827547319917 46.93547195432247 H 0.0 **** 0.52
607 H 43.341096891146265 20.023634364112056 48.068464405581025 H 0.0 **** 0.52
608 M 43.21918967771708 20.33253181144491 47.26057580158308 M 0.0 **** -1.04
609 O 48.90814746669686 25.717267072774227 22.653030705433622 O 0.0 **** 0.0
610 H 49.312301955547696 24.849869447654267 22.67558262095487 H 0.0 **** 0.52
611 H 48.78352353460141 25.947970144998315 23.57361468288714 H 0.0 **** 0.52
612 M 48.94393029798431 25.63576224706787 22.773764014729863 M 0.0 **** -1.04
613 O 34.77590426621129 26.266276697368763 28.273993438511475 O 0.0 **** 0.0
614 H 34.821322147314035 27.043265759552874 27.716809007441633 H 0.0 **** 0.52
615 H 35.342368464773784 26.470993724162874 29.017928029640146 H 0.0 **** 0.52
616 M 34.85423313923111 26.391947328009092 28.297899863336458 M 0.0 **** -1.04
617 O 27.297663897198035 35.46093569576794 0.5060430616257113 O 0.0 **** 0.0
618 H 27.284204049360213 35.52516139784018 1.4609893390415811 H 0.0 **** 0.52
619 H 28.069267839247004 34.928709778852124 0.3121584998794863 H 0.0 **** 0.52
620 M 27.39471636765971 35.401025748840404 0.6034679609760549 M 0.0 **** -1.04
621 O 0.27072827037316305 43.350187702628475 14.790490149080853 O 0.0 **** 0.0
622 H -0.6659212290613894 43.15449870757931 14.76553311358083 H 0.0 **** 0.52
623 H 0.5327825835596822 43.15503515383314 15.690196610662808 H 0.0 **** 0.52
624 M 0.18437174813086327 43.300154705813355 14.902469908983793 M 0.0 **** -1.04
625 O 18.06887955101142 18.08513513811573 39.838697815719634 O 0.0 **** 0.0
626 H 18.03921087801355 18.266477146523666 38.89930283381182 H 0.0 **** 0.52
627 H 18.79703515312255 18.615335521457332 40.16258993193592 H 0.0 **** 0.52
628 M 18.15829446364819 18.17622122945575 39.75990606864201 M 0.0 **** -1.04
629 O 28.122871067835224 18.168468503300026 40.26587593601757 O 0.0 **** 0.0
630 H 27.918771054547427 17.760498548759166 39.42437012242338 H 0.0 **** 0.52
631 H 27.917674174359508 17.495492109921063 40.914895032925756 H 0.0 **** 0.52
632 M 28.07047625961299 18.030093020059844 40.241235134399105 M 0.0 **** -1.04
633 O 19.30851504102672 43.64002512368625 7.2560287388241 O 0.0 **** 0.0
634 H 19.51397752012607 44.55020837740503 7.469524800443716 H 0.0 **** 0.52
635 H 18.423343746548483 43.50783254300448 7.595476729772998 H 0.0 **** 0.52
636 M 19.221504108501776 43.73961833623007 7.326812432351357 M 0.0 **** -1.04
637 O 31.451847704807502 41.29562460570836 39.341944608617624 O 0.0 **** 0.0
638 H 32.36279725031365 41.06881863877221 39.15497287211846 H 0.0 **** 0.52
639 H 31.267810717638525 42.040776417053124 38.77001138704836 H 0.0 **** 0.52
640 M 31.544901492866128 41.36197911707294 39.24479572740694 M 0.0 **** -1.04
641 O 14.807777099300466 11.70557142453374 45.776371379617146 O 0.0 **** 0.0
642 H 15.509652615169031 11.832647472411647 46.4146894922149 H 0.0 **** 0.52
643 H 15.25975727636171 11.615653455556457 44.937409193617036 H 0.0 **** 0.52
644 M 14.955484900838968 11.710328106717693 45.750686273421685 M 0.0 **** -1.04
645 O 48.01872302283651 35.91256196819843 13.763691736044919 O 0.0 **** 0.0
646 H 48.57843447736383 36.646366935294225 13.509755854774951 H 0.0 **** 0.52
647 H 47.538950312936954 36.230177371982116 14.528653542335178 H 0.0 **** 0.52
648 M 48.02895610886579 36.0471576924332 13.829109259248057 M 0.0 **** -1.04
649 O 1.422760097910441 25.156341992256742 11.826626572970184 O 0.0 **** 0.0
650 H 1.649824595859151 25.684078190844172 12.592240804382165 H 0.0 **** 0.52
651 H 2.034750693444657 24.420783503588257 11.852098747478223 H 0.0 **** 0.52
652 M 1.5301701328007056 25.129737903164514 11.927895461585791 M 0.0 **** -1.04
653 O 8.216713910732453 42.5294649301296 20.589934545458167 O 0.0 **** 0.0
654 H 7.64327335054281 42.74381975154493 19.854103373867467 H 0.0 **** 0.52
655 H 9.070911244885112 42.88091539485541 20.338818971843807 H 0.0 **** 0.52
656 M 8.252653891374628 42.60189551782566 20.463593338880713 M 0.0 **** -1.04
657 O 41.65487074690416 3.2218368967829663 9.862110271058908 O 0.0 **** 0.0
658 H 41.826742886425166 4.0159001461114245 9.35599499234178 H 0.0 **** 0.52
659 H 41.214211383794385 3.5321204775623323 10.653167735077758 H 0.0 **** 0.52
660 M 41.62046250372094 3.363206508917886 9.898586467390972 M 0.0 **** -1.04
661 O 20.55397558018374 42.688650559253006 16.276491551638372 O 0.0 **** 0.0
662 H 19.817849833342876 43.295785406801826 16.20075418513472 H 0.0 **** 0.52
663 H 21.22831996824526 43.18567016640509 16.739588881707746 H 0.0 **** 0.52
664 M 20.546066600040366 42.829996247518935 16.326078231611177 M 0.0 **** -1.04
665 O 46.454571153419145 34.117602584143214 27.216767186451225 O 0.0 **** 0.0
666 H 46.34598957619144 34.54709314156186 26.368253287637366 H 0.0 **** 0.52
667 H 45.777843285720834 34.50643662759072 27.770911702895344 H 0.0 **** 0.52
668 M 46.354041752122036 34.22235820385816 27.179084079639388 M 0.0 **** -1.04
669 O 27.652206031481068 45.56798630204997 42.379151554570946 O 0.0 **** 0.0
670 H 27.941818857290254 45.27603432103284 43.24351022465917 H 0.0 **** 0.52
671 H 27.290940236704163 46.441549824859685 42.529490988869334 H 0.0 **** 0.52
672 M 27.643033770744232 45.64244017524783 42.50904463831612 M 0.0 **** -1.04
673 O 46.22301894962471 44.648786789136416 27.610806536901464 O 0.0 **** 0.0
674 H 46.395035892713956 44.41395635205209 28.522669490377663 H 0.0 **** 0.52
675 H 46.04064755696497 45.58813482319715 27.63519740254654 H 0.0 **** 0.52
676 M 46.221693334901424 44.73897389728513 27.73065947481033 M 0.0 **** -1.04
677 O 21.050429753289716 45.13632830508746 29.04765639457409 O 0.0 **** 0.0
678 H 21.405562293106897 45.677162697756515 29.753068886038307 H 0.0 **** 0.52
679 H 21.039087159007515 44.249479145232385 29.40765596528463 H 0.0 **** 0.52
680 M 21.09443913923405 45.092034305953405 29.18404247985959 M 0.0 **** -1.04
681 O 5.578826067625552 16.587379597606684 31.631618449404872 O 0.0 **** 0.0
682 H 5.975816568496957 16.025305172198514 30.966261671347745 H 0.0 **** 0.52
683 H 5.164416624617011 15.979043596083514 32.243518245325546 H 0.0 **** 0.52
684 M 5.576596056741509 16.437551855044035 31.62477555564184 M 0.0 **** -1.04
685 O 7.962115551312864 6.462770150650741 22.902703288204606 O 0.0 **** 0.0
686 H 7.2780531357714136 7.081856405965681 22.647713627830747 H 0.0 **** 0.52
687 H 7.499334739602297 5.7809527143843695 23.389723164807712 H 0.0 **** 0.52
688 M 7.81530556865908 6.454739602356064 22.932405767163083 M 0.0 **** -1.04
689 O 30.827396443922577 27.229825442671306 9.410989625341736 O 0.0 **** 0.0
690 H 31.114820062528487 27.29924955120685 8.500606425277208 H 0.0 **** 0.52
691 H 31.5903502703632 27.495330772008856 9.924445375480131 H 0.0 **** 0.52
692 M 30.961858215592418 27.272700438906146 9.360177364259625 M 0.0 **** -1.04
693 O 17.591483528293903 26.642575211559574 41.2436884197715 O 0.0 **** 0.0
694 H 17.07547617036009 27.32365623860211 41.67507329824655 H 0.0 **** 0.52
695 H 17.67192826312394 25.95051200629124 41.90004696604399 H 0.0 **** 0.52
696 M 17.53572628797781 26.641169358639882 41.3829329918844 M 0.0 **** -1.04
697 O 24.61224700371318 9.018853774408568 27.528567516278954 O 0.0 **** 0.0
698 H 25.329022793804707 8.501566122837923 27.89581957143625 H 0.0 **** 0.52
699 H 24.29426466819834 8.498513518608693 26.790759227498796 H 0.0 **** 0.52
700 M 24.66329781096989 8.886024666287552 27.481132226407226 M 0.0 **** -1.04
701 O 16.451502188439136 10.454650634171404 10.649857242751917 O 0.0 **** 0.0
702 H 17.357557810065487 10.490672019525451 10.343270945690227 H 0.0 **** 0.52
703 H 16.36811110358346 11.203157770337633 11.240630041800223 H 0.0 **** 0.52
704 M 16.556813127892 10.555080156165252 10.686236694474415 M 0.0 **** -1.04
705 O 35.66799820779643 48.10067684873945 29.97352046199037 O 0.0 **** 0.0
706 H 35.07343932437884 48.637135247412715 30.49786757824397 H 0.0 **** 0.52
707 H 36.4868879904009 48.09562725448113 30.469124240225693 H 0.0 **** 0.52
708 M 35.69671548527294 48.16870425325856 30.104086712058056 M 0.0 **** -1.04
709 O 9.865717816918323 27.697181048241116 25.433226115363254 O 0.0 **** 0.0
710 H 9.03432013402185 28.00120032326433 25.06911248619967 H 0.0 **** 0.52
711 H 10.065900404350305 26.900502192684414 24.94184241060917 H 0.0 **** 0.52
712 M 9.784914491257723 27.6341144886285 25.323711820246984 M 0.0 **** -1.04
713 O 27.243341122863498 39.13580695886609 36.71285595150531 O 0.0 **** 0.0
714 H 28.1065619071572 38.740191402522385 36.59216153441954 H 0.0 **** 0.52
715 H 26.854536778924036 38.646850168122334 37.43810072758979 H 0.0 **** 0.52
716 M 27.304072427892624 39.02257103559212 36.790245669522385 M 0.0 **** -1.04
717 O 19.130004756480783 42.22867056217497 24.435587220003356 O 0.0 **** 0.0
718 H 19.424105259737225 43.08126341496977 24.11493316800125 H 0.0 **** 0.52
719 H 19.565422168750043 42.127359216620725 25.28197749842907 H 0.0 **** 0.52
720 M 19.223392798371897 42.32484378953358 24.502887805945583 M 0.0 **** -1.04
721 O 39.23093276781283 9.492994484447424 7.09272460543734 O 0.0 **** 0.0
722 H 39.80200316742752 9.247268023008942 6.364901068224789 H 0.0 **** 0.52
723 H 38.65091183283987 10.161215993585579 6.727643049854244 H 0.0 **** 0.52
724 M 39.229787383257346 9.547078377302102 6.9528190806397205 M 0.0 **** -1.04
725 O 18.442449097554892 32.45912657296522 14.81930836264725 O 0.0 **** 0.0
726 H 18.604823076012135 31.87538787281113 14.078287098177789 H 0.0 **** 0.52
727 H 18.02722740426185 33.22946369141482 14.431493731588615 H 0.0 **** 0.52
728 M 18.410081201483944 32.48301389454651 14.674803043531915 M 0.0 **** -1.04
729 O 8.40032076617237 1.588179254894257 46.72367218839988 O 0.0 **** 0.0
730 H 7.643762487747047 1.37755339439272 46.17642024091253 H 0.0 **** 0.52
731 H 8.666299526956685 2.4625694415744306 46.439196765145674 H 0.0 **** 0.52
732 M 8.337520135483118 1.6731497795508758 46.61720029460331 M 0.0 **** -1.04
733 O 24.988828374955887 37.68027343697343 35.80909394708989 O 0.0 **** 0.0
734 H 25.17582325836895 36.80459153276924 35.47080011309293 H 0.0 **** 0.52
735 H 25.79951005887618 38.16967690892597 35.669418013294255 H 0.0 **** 0.52
736 M 25.116543702678342 37.63082472673617 35.74790791245281 M 0.0 **** -1.04
737 O 22.265714570503924 11.278422862317795 21.576237339269095 O 0.0 **** 0.0
738 H 22.26340558114579 10.412001752690182 21.983100282712556 H 0.0 **** 0.52
739 H 23.1692754767142 11.582080273649911 21.66340018525987 H 0.0 **** 0.52
740 M 22.38108569079349 11.206382172788379 21.63947911868961 M 0.0 **** -1.04
741 O 42.507864223094465 44.93351351275629 22.75995379814407 O 0.0 **** 0.0
742 H 41.586119552938705 44.801643461104675 22.53808570322708 H 0.0 **** 0.52
743 H 42.56407159942188 44.71683143445162 23.690607921383855 H 0.0 **** 0.52
744 M 42.39706417447391 44.88889481536076 22.85068786595442 M 0.0 **** -1.04
745 O 42.86115515453485 33.173172053468065 10.754734085030645 O 0.0 **** 0.0
746 H 42.942303079278 34.0710853637784 10.433182539735954 H 0.0 **** 0.52
747 H 43.736035787775016 32.799899964539 10.6475846753644 H 0.0 **** 0.52
748 M 42.98353896087285 33.24033280011586 10.699854761083381 M 0.0 **** -1.04
749 O 0.7175227043390535 11.528226280680956 1.862688119355262 O 0.0 **** 0.0
750 H 0.5943751616340762 11.136139900886986 2.7271716426401795 H 0.0 **** 0.52
751 H 0.43813946291100336 10.848826634493832 1.249019847915136 H 0.0 **** 0.52
752 M 0.6659938808718238 11.391062652734254 1.8947956986565515 M 0.0 **** -1.04
753 O 31.883036377770654 48.537415529613156 7.146763000719915 O 0.0 **** 0.0
754 H 31.84483285751476 48.80917865976169 6.229749207962231 H 0.0 **** 0.52
755 H 31.5641158233401 49.29618531914527 7.635422139011626 H 0.0 **** 0.52
756 M 31.83732027276809 48.66933667608764 7.091928133415903 M 0.0 **** -1.04
757 O 7.193328546476204 48.235534526040645 40.457514770779085 O 0.0 **** 0.0
758 H 6.556356718174145 48.30576032150384 41.16854542347013 H 0.0 **** 0.52
759 H 8.008320790418814 48.57046707639291 40.831462186224215 H 0.0 **** 0.52
760 M 7.216117540571722 48.28739993208279 40.59640552056899 M 0.0 **** -1.04
761 O 13.605441205014786 40.75383853051527 32.20481631743618 O 0.0 **** 0.0
762 H 12.718998142841684 41.051460214350996 32.000200118065244 H 0.0 **** 0.52
763 H 13.501659802967733 40.20945029900267 32.98526413322515 H 0.0 **** 0.52
764 M 13.478679643880758 40.722249379473155 32.27853023041944 M 0.0 **** -1.04
765 O 11.487028258431026 42.95472149591941 43.99297704768914 O 0.0 **** 0.0
766 H 11.346306430312069 42.04067021673426 43.74612143101298 H 0.0 **** 0.52
767 H 10.937519511165439 43.08177227169856 44.766363140315725 H 0.0 **** 0.52
768 M 11.398669515923945 42.85397546231351 44.06037948237245 M 0.0 **** -1.04
769 O 42.02449536717868 21.977407661396498 0.7954294486244602 O 0.0 **** 0.0
770 H 42.35996185811684 22.75643540972453 0.35180182029993334 H 0.0 **** 0.52
771 H 42.49213296194096 21.24873387082971 0.3872891339234861 H 0.0 **** 0.52
772 M 42.12730307396655 21.983853283684113 0.6863920531294886 M 0.0 **** -1.04
773 O 16.430260539805644 15.549892633370646 37.88904614103657 O 0.0 **** 0.0
774 H 15.793303777037023 15.330961548850183 37.20891058519135 H 0.0 **** 0.52
775 H 16.014481358568425 15.272632820612685 38.705430644818975 H 0.0 **** 0.52
776 M 16.295497317491925 15.486373489598165 37.906488218178694 M 0.0 **** -1.04
777 O 13.470380229339867 8.88935853825131 24.798732122061267 O 0.0 **** 0.0
778 H 13.65159699740218 9.76323319633388 24.452708710768434 H 0.0 **** 0.52
779 H 12.545251976435864 8.740832437286118 24.603011497454546 H 0.0 **** 0.52
780 M 13.37514987665405 8.982212515810343 24.729382711596656 M 0.0 **** -1.04
781 O 6.44350938590528 23.239839790844055 20.09320033061598 O 0.0 **** 0.0
782 H 6.3635131730910715 22.629211918469846 19.36042397229358 H 0.0 **** 0.52
783 H 6.979962151282621 23.955349362381458 19.75188836036666 H 0.0 **** 0.52
784 M 6.501941307698388 23.253265948073945 19.955703279787222 M 0.0 **** -1.04
785 O 24.847326520737656 31.56021873786903 46.525192163892804 O 0.0 **** 0.0
786 H 25.758778174887293 31.85216838821751 46.50936812674718 H 0.0 **** 0.52
787 H 24.33721669483633 32.35848914716319 46.388145124269364 H 0.0 **** 0.52
788 M 24.898703207694027 31.699780602536972 46.50562287520361 M 0.0 **** -1.04
789 O 28.848823814484053 1.1065266704483405 3.3946573413571426 O 0.0 **** 0.0
790 H 28.10877796259772 0.5458053143032485 3.1619498931370162 H 0.0 **** 0.52
791 H 28.481847691695638 1.7481434262291415 4.002839544915402 H 0.0 **** 0.52
792 M 28.70711096973782 1.116881932226006 3.4427228938602985 M 0.0 **** -1.04
793 O 37.731438727992305 3.7447753556520045 1.8081497828535127 O 0.0 **** 0.0
794 H 37.49672746985975 4.672166475857993 1.7751875134799011 H 0.0 **** 0.52
795 H 36.89625756653792 3.289497832396202 1.9150328103513359 H 0.0 **** 0.52
796 M 37.59447906990544 3.8052121516574755 1.8176119266026736 M 0.0 **** -1.04
797 O 31.67318552695177 38.47413567109992 30.225852573006545 O 0.0 **** 0.0
798 H 31.238119850962747 38.77400402598435 31.023991351751853 H 0.0 **** 0.52
799 H 31.83606143006142 37.54302829899244 30.376645624926127 H 0.0 **** 0.52
800 M 31.638341370657443 38.39332897512464 30.347327505147682 M 0.0 **** -1.04
801 O 36.392000774952976 1.028842403385461 34.062833894442704 O 0.0 **** 0.0
802 H 36.0327532740659 1.090729743358274 34.94789936042765 H 0.0 **** 0.52
803 H 36.34896601270748 1.9227664876497101 33.723309711572846 H 0.0 **** 0.52
804 M 36.34050374588246 1.151198027225881 34.13267006954236 M 0.0 **** -1.04
805 O 18.471840972288486 15.172215562926686 35.89920117051731 O 0.0 **** 0.0
806 H 17.85591076533465 15.356813090619454 36.60827258449827 H 0.0 **** 0.52
807 H 19.234312723958634 14.792967466654657 36.336279400015805 H 0.0 **** 0.52
808 M 18.490600440066586 15.147296759466528 36.045922367202664 M 0.0 **** -1.04
809 O 21.61547594804773 36.63072396973941 26.246646915044547 O 0.0 **** 0.0
810 H 22.000763591077305 36.03850322008715 26.892446453238065 H 0.0 **** 0.52
811 H 20.952412083804873 36.102523979600356 25.802146398010706 H 0.0 **** 0.52
812 M 21.57991696380843 36.48729593386297 26.27241551101898 M 0.0 **** -1.04
813 O 24.067648647788648 19.371486934777153 10.84575655533356 O 0.0 **** 0.0
814 H 23.344645113526614 19.997358206979982 10.887931795109065 H 0.0 **** 0.52
815 H 23.65127129985923 18.516249138236063 10.952648522478565 H 0.0 **** 0.52
816 M 23.92179410146113 19.342125369996523 10.864838685854911 M 0.0 **** -1.04
817 O 3.1445865279878156 32.14809275749488 13.642544620437185 O 0.0 **** 0.0
818 H 3.4317851155550794 31.513893614856276 14.299459686979546 H 0.0 **** 0.52
819 H 3.7476803938120953 32.024249586723855 12.909625863086802 H 0.0 **** 0.52
820 M 3.2585548188465876 32.05105337587868 13.6328146856332 M 0.0 **** -1.04
821 O 39.10046229141645 37.683245591543105 11.557254919062515 O 0.0 **** 0.0
822 H 39.36219282918495 36.923913035813854 12.077965687326206 H 0.0 **** 0.52
823 H 39.31816416815926 38.43691871542521 12.105716997930443 H 0.0 **** 0.52
824 M 39.16183552666798 37.68252146719527 11.694122932581678 M 0.0 **** -1.04
825 O 39.91611383640511 26.73918858464937 8.317776313475242 O 0.0 **** 0.0
826 H 40.65555006879409 26.541387019577883 7.743026417057628 H 0.0 **** 0.52
827 H 40.150679366279476 27.568757313722593 8.733737949910626 H 0.0 **** 0.52
828 M 40.0407983117932 26.820062090961805 8.297449887523712 M 0.0 **** -1.04
829 O 37.13065452300302 24.805432968454916 30.155338749556563 O 0.0 **** 0.0
830 H 37.51432232176605 24.356053334445438 29.40228832083311 H 0.0 **** 0.52
831 H 36.275082904149365 24.39213043973249 30.27112589011867 H 0.0 **** 0.52
832 M 37.07024561872303 24.69499917299004 30.07376115193975 M 0.0 **** -1.04
833 O 29.505895716034786 4.655785428757665 11.300726928463693 O 0.0 **** 0.0
834 H 29.731804280666502 4.122216203319419 12.062630620307134 H 0.0 **** 0.52
835 H 30.242714527368623 5.258949186822467 11.203153460655392 H 0.0 **** 0.52
836 M 29.629136809392623 4.66469503401687 11.38576958319118 M 0.0 **** -1.04
837 O 10.949718423303885 42.14727913902517 33.67858511562534 O 0.0 **** 0.0
838 H 10.800351908539895 41.27498837242443 34.04331166505083 H 0.0 **** 0.52
839 H 11.503906375716937 42.58570395720908 34.32425500894785 H 0.0 **** 0.52
840 M 11.001540304751082 42.09173984588273 33.807928516301686 M 0.0 **** -1.04
841 O 47.155198318513825 5.361202420493836 8.399928185924239 O 0.0 **** 0.0
842 H 47.083366357749014 4.923290930551449 9.248045484269113 H 0.0 **** 0.52
843 H 47.850846958754786 4.887857123816285 7.943587655902171 H 0.0 **** 0.52
844 M 47.23505448690047 5.244548974923982 8.450080787385197 M 0.0 **** -1.04
845 O 35.09262641236405 43.01697468072332 40.29365976760818 O 0.0 **** 0.0
846 H 34.30092221799076 43.154880239206875 40.81367562920592 H 0.0 **** 0.52
847 H 34.80332098003423 43.11216939061606 39.38620790731473 H 0.0 **** 0.52
848 M 34.95424344595003 43.04681436123825 40.244063034901 M 0.0 **** -1.04
849 O 35.72169778787919 8.208353803960563 26.879627780767734 O 0.0 **** 0.0
850 H 35.53919410991773 7.303938523640795 26.62476742710713 H 0.0 **** 0.52
851 H 35.03027940412709 8.425679434322042 27.50487839327444 H 0.0 **** 0.52
852 M 35.60982460349864 8.120397437403021 26.92704265122586 M 0.0 **** -1.04
853 O 46.346110202623926 43.03853854393974 47.59314138012986 O 0.0 **** 0.0
854 H 46.39195458620627 43.852873850083384 47.092156938603814 H 0.0 **** 0.52
855 H 47.16716518042144 43.01250033874357 48.0844842945515 H 0.0 **** 0.52
856 M 46.45708334241637 43.13945051460444 47.591907157639305 M 0.0 **** -1.04
857 O 33.79073328907683 42.668336015895825 37.74398756099329 O 0.0 **** 0.0
858 H 33.75204381298529 42.61665240056624 36.78896896795278 H 0.0 **** 0.52
859 H 33.111673706510885 43.301141853496425 37.97778941480081 H 0.0 **** 0.52
860 M 33.69885292452611 42.74272684270195 37.65166267330247 M 0.0 **** -1.04
861 O 5.017820231581439 18.623713191844445 19.374778961855874 O 0.0 **** 0.0
862 H 4.1355953968925405 18.995017713036077 19.381207260337835 H 0.0 **** 0.52
863 H 5.005930699861786 17.989191889381573 18.658210590482373 H 0.0 **** 0.52
864 M 4.903362176340281 18.59001803286725 19.28387217413954 M 0.0 **** -1.04
865 O 49.71002403094065 2.552762913615254 14.56223656684586 O 0.0 **** 0.0
866 H 49.3790064852867 2.7510159561946352 13.686250349279888 H 0.0 **** 0.52
867 H 50.654886314799214 2.6922847080143484 14.499008079227448 H 0.0 **** 0.52
868 M 49.788604292420914 2.59600230857788 14.442005536895428 M 0.0 **** -1.04
869 O 16.62953230292394 31.700539275963813 8.392089026753107 O 0.0 **** 0.0
870 H 16.444847373686297 32.05021441253285 7.520397522283266 H 0.0 **** 0.52
871 H 15.82615300957747 31.244592108863948 8.64293205107253 H 0.0 **** 0.52
872 M 16.50304823472704 31.686935355683445 8.31261256426032 M 0.0 **** -1.04
873 O 11.423065570233824 35.05361222646913 42.18536057307799 O 0.0 **** 0.0
874 H 11.302748311984441 34.89623928392994 41.248885219869386 H 0.0 **** 0.52
875 H 11.434424843009246 34.179844035512886 42.57603675367306 H 0.0 **** 0.52
876 M 11.409117721294006 34.92161375042688 42.11549167463611 M 0.0 **** -1.04
877 O 43.50276100175442 48.10730027247333 42.96979028703168 O 0.0 **** 0.0
878 H 43.48308271022408 48.994111992322736 43.32952085738852 H 0.0 **** 0.52
879 H 43.65455451125858 47.54384606000027 43.72854275729378 H 0.0 **** 0.52
880 M 43.519673029608455 48.14869458057408 43.112969903177714 M 0.0 **** -1.04
881 O 16.971087763046228 23.272955730105302 5.948836830654538 O 0.0 **** 0.0
882 H 16.928704596923723 23.383475248516923 4.998984981397256 H 0.0 **** 0.52
883 H 16.550100041260208 24.05728382650911 6.30072776218728 H 0.0 **** 0.52
884 M 16.91176993633227 23.38750751533624 5.872290136719802 M 0.0 **** -1.04
885 O 49.62219958700033 43.56803366984583 27.29962466342174 O 0.0 **** 0.0
886 H 49.44028597170358 44.31146732051415 26.724783724201046 H 0.0 **** 0.52
887 H 48.87989950592139 42.977634408818666 27.17059743748368 H 0.0 **** 0.52
888 M 49.50388882329765 43.587624729399806 27.209520960425536 M 0.0 **** -1.04
889 O 0.6672019506786029 0.4252238161605194 15.985653673052093 O 0.0 **** 0.0
890 H 0.2626083881274255 1.2431100372095132 15.6965243373174 H 0.0 **** 0.52
891 H 1.1647571963080878 0.6666703278037004 16.766916487408405 H 0.0 **** 0.52
892 M 0.6791024714482177 0.5608319924497319 16.048653170120936 M 0.0 **** -1.04
893 O 20.634337165490546 35.83321360791204 11.56340298128403 O 0.0 **** 0.0
894 H 21.58986601801723 35.782845625928125 11.589039291184019 H 0.0 **** 0.52
895 H 20.364036795400583 35.730579138080586 12.475890162838397 H 0.0 **** 0.52
896 M 20.722054505112908 35.813627468039606 11.683495187290415 M 0.0 **** -1.04
897 O 22.4118186090205 26.76134377950292 25.003730978257643 O 0.0 **** 0.0
898 H 21.949408074414464 26.34148727591677 25.72907619661685 H 0.0 **** 0.52
899 H 23.1067466972454 26.14478750640582 24.773162860941948 H 0.0 **** 0.52
900 M 22.44158438970348 26.628669896239924 25.06706861187518 M 0.0 **** -1.04
901 O 11.505433713503804 27.049858022462793 29.069157309639973 O 0.0 **** 0.0
902 H 10.67432525488266 27.292631031910346 28.66105198958308 H 0.0 **** 0.52
903 H 12.116842934030691 26.966623033242445 28.33739349107365 H 0.0 **** 0.52
904 M 11.477308989079228 27.07028122632257 28.923239424316904 M 0.0 **** -1.04
905 O 27.320654365634187 13.963908863310877 37.85768433972795 O 0.0 **** 0.0
906 H 27.425644379367025 14.066484158268509 36.911806858032506 H 0.0 **** 0.52
907 H 27.93743937516892 14.59000553558191 38.2369051873566 H 0.0 **** 0.52
908 M 27.413049851990202 14.057187898137357 37.785145667635945 M 0.0 **** -1.04
909 O 39.07689975693933 1.982118440592941 9.46466891536034 O 0.0 **** 0.0
910 H 38.66943018285489 2.0342368959933244 8.600098605121214 H 0.0 **** 0.52
911 H 39.81074799084112 2.595167718364528 9.421466536654712 H 0.0 **** 0.52
912 M 39.118680547636664 2.067267823492932 9.348462006187617 M 0.0 **** -1.04
913 O 1.7705601417645767 42.198853977754766 28.042179413455667 O 0.0 **** 0.0
914 H 1.0431451156840978 42.733322979939466 27.72368502692723 H 0.0 **** 0.52
915 H 1.6518284763236935 42.1732451537693 28.991640140722378 H 0.0 **** 0.52
916 M 1.662243317569967 42.263994291262485 28.1229517381561 M 0.0 **** -1.04
917 O 18.508322884943393 17.431982472157422 9.43766083657372 O 0.0 **** 0.0
918 H 17.963101481367268 18.083768345853663 9.878272035303056 H 0.0 **** 0.52
919 H 18.825512686798657 17.876361054504002 8.651437370783071 H 0.0 **** 0.52
920 M 18.479131864708226 17.57230554524291 9.393417230804282 M 0.0 **** -1.04
921 O 44.67137038308237 34.91981395805955 1.5195276750519409 O 0.0 **** 0.0
922 H 45.20346066186127 35.30732127384729 0.8245840115237291 H 0.0 **** 0.52
923 H 45.26336342246375 34.85859548235061 2.2692112116151555 H 0.0 **** 0.52
924 M 44.815267806093935 34.961582739764346 1.5265352628342566 M 0.0 **** -1.04
925 O 41.83678855462975 44.96989871368168 45.54079788772386 O 0.0 **** 0.0
926 H 41.690556578421536 44.48580074783554 44.728089965567264 H 0.0 **** 0.52
927 H 42.44479672430809 45.66821822062807 45.298093776980416 H 0.0 **** 0.52
928 M 41.895901426561196 44.99732137577983 45.40569122954422 M 0.0 **** -1.04
929 O 38.73123585028105 15.871165103231373 48.36211097778298 O 0.0 **** 0.0
930 H 38.6683417773087 16.823189635719036 48.4390663454251 H 0.0 **** 0.52
931 H 39.66269569024669 15.70292516911777 48.21961172587628 H 0.0 **** 0.52
932 M 38.842423532199 15.971498655904883 48.35372055987713 M 0.0 **** -1.04
933 O 18.632318847708486 4.377339219158671 45.113011410467564 O 0.0 **** 0.0
934 H 18.491163539749277 5.038462828835726 45.790669243026805 H 0.0 **** 0.52
935 H 17.903217834517026 4.497803010769729 44.50462895661206 H 0.0 **** 0.52
936 M 18.520915154461786 4.477392508924552 45.121879540655364 M 0.0 **** -1.04
937 O 36.026103484217685 27.572444839924035 13.585904743420748 O 0.0 **** 0.0
938 H 35.50051676323531 27.433380795842634 12.798092422305253 H 0.0 **** 0.52
939 H 35.83646703016302 28.474236075475655 13.84482612463426 H 0.0 **** 0.52
940 M 35.93454637075635 27.67008310298062 13.518200265740802 M 0.0 **** -1.04
941 O 22.537609299619014 28.58980406434417 15.77194436363095 O 0.0 **** 0.0
942 H 22.13432656886696 28.044779481105543 16.447621847814375 H 0.0 **** 0.52
943 H 23.230170338510767 29.06631097311625 16.229688982172092 H 0.0 **** 0.52
944 M 22.574640637507233 28.581032941481503 15.917036736631587 M 0.0 **** -1.04
945 O 19.234690080368225 31.849904608411 34.61780806953192 O 0.0 **** 0.0
946 H 19.238555908319373 31.61658649964163 35.54612705606213 H 0.0 **** 0.52
947 H 18.39207285935929 31.531643758465428 34.29387068933622 H 0.0 **** 0.52
948 M 19.127319248302847 31.77929538666223 34.69517638262986 M 0.0 **** -1.04
949 O 12.336920547120137 1.9588496236501753 18.004473403581443 O 0.0 **** 0.0
950 H 12.190826532931197 2.84213609791619 18.343132303065502 H 0.0 **** 0.52
951 H 11.480843639447215 1.6826403555703062 17.67725977347287 H 0.0 **** 0.52
952 M 12.208629760253686 2.0365631438100418 18.005938449508932 M 0.0 **** -1.04
953 O 17.083901764181107 16.21637355219687 20.58245996793313 O 0.0 **** 0.0
954 H 17.26789834254008 16.8768775314376 21.250372876735362 H 0.0 **** 0.52
955 H 17.922182143071836 16.082183828906196 20.140297303725397 H 0.0 **** 0.52
956 M 17.214765900025768 16.28374782309875 20.61135911053421 M 0.0 **** -1.04
957 O 10.855515435853693 27.451279120753583 0.6187710730408256 O 0.0 **** 0.0
958 H 10.454032768203529 28.04510268196733 -0.015589805000637114 H 0.0 **** 0.52
959 H 10.761563029172887 26.58281800417706 0.2273935719090403 H 0.0 **** 0.52
960 M 10.792093724216537 27.416121462023828 0.487463755686953 M 0.0 **** -1.04
961 O 42.9516044534452 24.950285518947236 46.97328121878792 O 0.0 **** 0.0
962 H 43.895364838671114 24.852619581166344 46.84676801190291 H 0.0 **** 0.52
963 H 42.78035824715505 25.875463457590843 46.79735722821212 H 0.0 **** 0.52
964 M 43.05049641478171 25.056217590398685 46.934565334618554 M 0.0 **** -1.04
965 O 0.796798486215522 11.183381427270078 45.41969063704451 O 0.0 **** 0.0
966 H 1.1916201217797848 11.972045524385969 45.04773029458018 H 0.0 **** 0.52
967 H 0.9100461676199956 11.28130382636135 46.36510899196372 H 0.0 **** 0.52
968 M 0.8618377796653505 11.29687616748556 45.493100601803924 M 0.0 **** -1.04
969 O 0.5540970914058931 2.505257410877334 30.91733535492216 O 0.0 **** 0.0
970 H 0.842092765079336 1.6104772648113106 31.09804322474831 H 0.0 **** 0.52
971 H -0.150223839602603 2.66230345501111 31.54622190106774 H 0.0 **** 0.52
972 M 0.5008019383775206 2.410818478267594 31.020973714867722 M 0.0 **** -1.04
973 O 3.442344496393915 0.12111874359287662 42.89046813198974 O 0.0 **** 0.0
974 H 2.503379056453977 0.29498884012057636 42.95636768968823 H 0.0 **** 0.52
975 H 3.555056330542487 -0.26162104210978754 42.020390335417424 H 0.0 **** 0.52
976 M 3.3365732933796566 0.09438123641626955 42.78752355277879 M 0.0 **** -1.04
977 O 34.7665003439748 33.36050460627959 38.61946346045171 O 0.0 **** 0.0
978 H 34.94169479627264 32.43667960221414 38.44034739748213 H 0.0 **** 0.52
979 H 33.817210873395986 33.40711430094083 38.73306842942743 H 0.0 **** 0.52
980 M 34.66740592685186 33.24820978085167 38.611077531751754 M 0.0 **** -1.04
981 O 35.659706127555374 25.606797304035034 34.593430927879105 O 0.0 **** 0.0
982 H 35.71434841591355 26.512385685066512 34.288220157196676 H 0.0 **** 0.52
983 H 36.33498955892127 25.14492068281967 34.0965502182584 H 0.0 **** 0.52
984 M 35.75314570925236 25.663598625848696 34.49075233008235 M 0.0 **** -1.04
985 O 7.364569461343714 37.07144359160097 25.39689201185044 O 0.0 **** 0.0
986 H 7.720334106655754 37.874321102214886 25.777743896243685 H 0.0 **** 0.52
987 H 6.486783504289911 36.99670797182785 25.771239097909298 H 0.0 **** 0.52
988 M 7.29774400856277 37.1646552713551 25.493567564313533 M 0.0 **** -1.04
989 O 8.981944680426125 41.290732343916076 14.765540241765237 O 0.0 **** 0.0
990 H 9.851965114829909 41.68491230090193 14.702966266703655 H 0.0 **** 0.52
991 H 8.395149855286547 42.02907460443301 14.929097823869157 H 0.0 **** 0.52
992 M 9.018201156073744 41.435709669321724 14.7784672042024 M 0.0 **** -1.04
993 O 5.253463167563098 35.06269001180999 38.62635369741785 O 0.0 **** 0.0
994 H 5.401197112877341 34.219471826563186 38.19811791534265 H 0.0 **** 0.52
995 H 4.301339256473639 35.13367975550486 38.694533401497836 H 0.0 **** 0.52
996 M 5.150491597924656 34.96383547234614 38.58026210878605 M 0.0 **** -1.04
997 M 42.6177104656295 14.159130536217305 37.78130885951473 M 0.0 **** -1.04
998 O 42.75302088348679 14.128473977230428 37.724287855705775 O 0.0 **** 0.0
999 H 41.90713350416657 14.092144536182388 37.27776313011792 H 0.0 **** 0.52
1000 H 42.541901814725065 14.404282901372227 38.61624504536867 H 0.0 **** 0.52
1001 O 22.738754283119942 40.905995068369855 39.94684233510019 O 0.0 **** 0.0
1002 H 22.205492174221156 41.644342526179315 39.652386739004704 H 0.0 **** 0.52
1003 H 22.997265840258773 40.45994442181693 39.14034385662599 H 0.0 **** 0.52
1004 M 22.703582217738187 40.94341319681523 39.80590662111533 M 0.0 **** -1.04
1005 O 36.677373573662706 25.66808967250933 15.260363513499058 O 0.0 **** 0.0
1006 H 35.85612642439524 25.734073908062236 15.747628750021988 H 0.0 **** 0.52
1007 H 36.67977772567094 26.436036490855557 14.688978122937456 H 0.0 **** 0.52
1008 M 36.57255146112649 25.774842513031707 15.24959468139653 M 0.0 **** -1.04
1009 O 0.5492698393038488 30.302559318776584 19.634753314364122 O 0.0 **** 0.0
1010 H -0.3328741975825551 30.373688007044507 19.270074406796002 H 0.0 **** 0.52
1011 H 0.5809976829830313 30.971729970884944 20.31844386466402 H 0.0 **** 0.52
1012 M 0.4404063423787368 30.397326678466904 19.675591225225997 M 0.0 **** -1.04
1013 O 46.55069315852804 12.507860639521816 0.2794742743307862 O 0.0 **** 0.0
1014 H 47.3513730522377 12.523776813944686 -0.24482252434893326 H 0.0 **** 0.52
1015 H 46.23034386542179 13.409549999462193 0.2557702971626425 H 0.0 **** 0.52
1016 M 46.61218198593163 12.625325508591423 0.20932378207312766 M 0.0 **** -1.04
1017 O 37.66175251646636 30.987987427099426 8.078584613067058 O 0.0 **** 0.0
1018 H 37.89948089793105 31.3443093781201 7.222577322049233 H 0.0 **** 0.52
1019 H 36.71628402028875 30.848105665666793 8.026144604249197 H 0.0 **** 0.52
1020 M 37.57115395556752 31.01569412697137 7.962292166247586 M 0.0 **** -1.04
1021 O 37.17379783133984 4.077395626493094 23.765927225708552 O 0.0 **** 0.0
1022 H 38.03373264498631 4.474328283872985 23.627414903820654 H 0.0 **** 0.52
1023 H 36.84667942806978 4.4868549248143825 24.566904785567065 H 0.0 **** 0.52
1024 M 37.242005096306805 4.18062414692216 23.850731222334552 M 0.0 **** -1.04
1025 O 40.485601468407275 18.321237834868775 28.87631238824638 O 0.0 **** 0.0
1026 H 40.573186702672494 17.37940512122686 29.022967869376625 H 0.0 **** 0.52
1027 H 39.54091078080272 18.47413746283988 28.856054711764017 H 0.0 **** 0.52
1028 M 40.37588061906317 18.22024473001315 28.892493346741716 M 0.0 **** -1.04
1029 O 41.467350640755285 35.424151158425936 36.510866183633944 O 0.0 **** 0.0
1030 H 40.64370445811216 35.73605815559306 36.13596612618801 H 0.0 **** 0.52
1031 H 41.982105404794424 35.1393713129822 35.755780001244524 H 0.0 **** 0.52
1032 M 41.42780866304016 35.427624474974145 36.3662144279463 M 0.0 **** -1.04
1033 O 36.755084675390464 49.09640298648773 45.15985452954942 O 0.0 **** 0.0
1034 H 37.322617198313864 49.635631480823456 45.710643354880034 H 0.0 **** 0.52
1035 H 36.54888233514509 49.65382737127356 44.409530520029605 H 0.0 **** 0.52
1036 M 36.80133964053914 49.23678827021673 45.13431177391482 M 0.0 **** -1.04
1037 O 37.9006659339137 46.92320173941501 41.69750433565465 O 0.0 **** 0.0
1038 H 37.943333331372926 45.97759822892155 41.555231708569146 H 0.0 **** 0.52
1039 H 38.44432079845591 47.07433312743053 42.470696424206004 H 0.0 **** 0.52
1040 M 37.97572267350773 46.8214993081002 41.77826972264175 M 0.0 **** -1.04
1041 O 4.602211463539563 46.90364246258072 22.53506840693974 O 0.0 **** 0.0
1042 H 3.819088126438976 46.396394695163586 22.32141902661822 H 0.0 **** 0.52
1043 H 4.640925845971395 47.58109766344261 21.859950416440228 H 0.0 **** 0.52
1044 M 4.506917483183696 46.92543126192871 22.421294810047012 M 0.0 **** -1.04
1045 O 48.790409267014226 17.170291342215368 3.6545160144072164 O 0.0 **** 0.0
1046 H 48.74944314664097 17.84760238755404 4.32964658954479 H 0.0 **** 0.52
1047 H 48.569616819648225 16.360003160337516 4.113768510364508 H 0.0 **** 0.52
1048 M 48.75690103071646 17.153267928322613 3.79973171982727 M 0.0 **** -1.04
1049 O 19.567098588438007 6.237502285350378 4.91154913181772 O 0.0 **** 0.0
1050 H 20.083820012965667 6.294381056845556 5.715285190120666 H 0.0 **** 0.52
1051 H 20.195535754783158 5.970855838090703 4.240583694695262 H 0.0 **** 0.52
1052 M 19.713693159131928 6.210649180643623 4.92854596448368 M 0.0 **** -1.04
1053 O 26.98526051575283 33.657136142075345 24.747543478004914 O 0.0 **** 0.0
1054 H 26.04659603988796 33.69415992398209 24.931304494310197 H 0.0 **** 0.52
1055 H 27.082092926592477 34.09773054871788 23.903310892221697 H 0.0 **** 0.52
1056 M 26.877495567672305 33.71827645623217 24.66299471390377 M 0.0 **** -1.04
1057 O 43.042698061223696 4.019030158597266 5.632694840597836 O 0.0 **** 0.0
1058 H 42.791682326954295 3.316306907161974 5.033196277184246 H 0.0 **** 0.52
1059 H 42.46325206963332 3.909667364457256 6.386691573535245 H 0.0 **** 0.52
1060 M 42.936388926234514 3.9150730184916327 5.65247241580056 M 0.0 **** -1.04
1061 O 49.57523879293227 25.54621749651488 3.6939405603251787 O 0.0 **** 0.0
1062 H 48.96310470662613 25.83957435986781 3.0190613741262333 H 0.0 **** 0.52
1063 H 50.192678192722404 24.981661428745443 3.2288872098930343 H 0.0 **** 0.52
1064 M 49.575917802242714 25.51150085691026 3.5480152340041107 M 0.0 **** -1.04
1065 O 33.89356246465467 28.974765720777985 15.369860781604388 O 0.0 **** 0.0
1066 H 34.16485338688559 28.13054632233759 15.73031107609475 H 0.0 **** 0.52
1067 H 33.36702423756898 29.37348151734098 16.06269031676419 H 0.0 **** 0.52
1068 M 33.86088792708553 28.91773589780921 15.504694028453216 M 0.0 **** -1.04
1069 O 26.392795162279526 1.3094355108048734 36.34799249710222 O 0.0 **** 0.0
1070 H 26.47674537814879 2.1096111139815417 35.829435378285595 H 0.0 **** 0.52
1071 H 27.251626528599942 0.891485137492952 36.28509262572968 H 0.0 **** 0.52
1072 M 26.51348308980097 1.3583649576253065 36.27355858705156 M 0.0 **** -1.04
1073 O 34.75119236598358 37.72904585641022 1.390726672444405 O 0.0 **** 0.0
1074 H 34.41591672560112 38.62541948955367 1.4089840452329567 H 0.0 **** 0.52
1075 H 35.456658481060785 37.749810950759404 0.7441075010341018 H 0.0 **** 0.52
1076 M 34.79858153651974 37.84645070791057 1.3102881480542208 M 0.0 **** -1.04
1077 O 46.16901509880582 32.575997499043226 5.356424873582469 O 0.0 **** 0.0
1078 H 46.054435449742684 33.23348209052834 4.670266249267144 H 0.0 **** 0.52
1079 H 46.92592612115084 32.063021624794665 5.073280389036796 H 0.0 **** 0.52
1080 M 46.25124168429221 32.59449565943442 5.232341713341469 M 0.0 **** -1.04
1081 O 12.023643709500895 24.128142221824277 3.6918886206299817 O 0.0 **** 0.0
1082 H 11.698873464783087 23.770170815888633 2.8656874132983603 H 0.0 **** 0.52
1083 H 12.537863494930676 24.893871991788274 3.436025975344897 H 0.0 **** 0.52
1084 M 12.04789568077865 24.180340975841318 3.553370973183142 M 0.0 **** -1.04
1085 O 49.367004241930005 47.05090517638947 37.96050943166659 O 0.0 **** 0.0
1086 H 49.33183044808328 47.540576728593265 38.78222306744351 H 0.0 **** 0.52
1087 H 48.45086222399317 46.948411263450744 37.70281206745787 H 0.0 **** 0.52
1088 M 49.24522437213854 47.100469020331055 38.03271066035633 M 0.0 **** -1.04
1089 O 31.574814626763157 25.50840570106539 15.849506153331461 O 0.0 **** 0.0
1090 H 31.446680410145305 24.797358672101396 16.477376473606874 H 0.0 **** 0.52
1091 H 30.77733336435574 26.033639642445287 15.915703294056517 H 0.0 **** 0.52
1092 M 31.456324798318917 25.484619402545206 15.938355993460503 M 0.0 **** -1.04
1093 O 20.320118196029664 20.567491748629088 23.050306039137038 O 0.0 **** 0.0
1094 H 20.18410383595111 19.734562739446112 23.50192257510957 H 0.0 **** 0.52
1095 H 19.442227786909406 20.938512422944793 22.96153797228343 H 0.0 **** 0.52
1096 M 20.190326033168688 20.508361705499663 23.096755262428502 M 0.0 **** -1.04
1097 O 21.107402956415214 16.637638974475145 23.04377861730931 O 0.0 **** 0.0
1098 H 21.8663693770292 17.20474408680432 22.907426383841397 H 0.0 **** 0.52
1099 H 21.36110297264699 16.06755830397928 23.76963878944935 H 0.0 **** 0.52
1100 M 21.237036912501942 16.637258507603573 23.119242836666857 M 0.0 **** -1.04
1101 O 17.288021336731504 6.095902017432386 15.10385960751708 O 0.0 **** 0.0
1102 H 17.924834575937396 6.352535027002677 14.436898670163217 H 0.0 **** 0.52
1103 H 16.825277171412136 5.351144061294707 14.719891154222466 H 0.0 **** 0.52
1104 M 17.310304542298006 6.033416255363782 14.969327855865714 M 0.0 **** -1.04
1105 O 22.754771482890575 3.1059080497219895 25.174454196756777 O 0.0 **** 0.0
1106 H 23.547764235515785 3.2749131413324335 25.683206448257557 H 0.0 **** 0.52
1107 H 22.804204380234964 3.7200010531285486 24.441872532534465 H 0.0 **** 0.52
1108 M 22.862612140847716 3.206154258709198 25.145800897399617 M 0.0 **** -1.04
1109 O 34.34575471137248 46.71141454880896 43.4675830595118 O 0.0 **** 0.0
1110 H 35.22069233971158 46.63190936239312 43.84757215811966 H 0.0 **** 0.52
1111 H 34.494574640771035 46.719431314982025 42.52205810764621 H 0.0 **** 0.52
1112 M 34.47680801763246 46.70226314999805 43.39518724173105 M 0.0 **** -1.04
1113 O 23.576170861111763 34.908052016621 20.939706116797392 O 0.0 **** 0.0
1114 H 23.07928837181271 34.44254191378329 21.612489534779776 H 0.0 **** 0.52
1115 H 23.44766783739489 34.39017209943992 20.145026268258878 H 0.0 **** 0.52
1116 M 23.49611379853971 34.782166435648605 20.924101371058423 M 0.0 **** -1.04
1117 O 32.45511870747062 11.081695397532304 41.7088484745829 O 0.0 **** 0.0
1118 H 31.542750507058706 11.215135241207427 41.96576440433165 H 0.0 **** 0.52
1119 H 32.86899961231661 10.699800783664807 42.48285628131706 H 0.0 **** 0.52
1120 M 32.39130614275381 11.049890570572826 41.840820208618474 M 0.0 **** -1.04
1121 O 14.177417861766173 34.07574595487558 45.2538396302656 O 0.0 **** 0.0
1122 H 15.05190800603151 34.441540652132346 45.38684393694775 H 0.0 **** 0.52
1123 H 13.78082111683787 34.63787317904138 44.588293605424084 H 0.0 **** 0.52
1124 M 14.23859427819167 34.19453165749713 45.18566827543054 M 0.0 **** -1.04
1125 O 48.63187918038431 14.685475022662219 5.406243359276175 O 0.0 **** 0.0
1126 H 48.46257229061664 14.183389798006 4.609077403179988 H 0.0 **** 0.52
1127 H 47.763178298245386 14.932758725784941 5.723163313256066 H 0.0 **** 0.52
1128 M 48.49900126344735 14.652857236439509 5.344766192763402 M 0.0 **** -1.04
1129 O 46.79879668378659 40.02596692111959 13.715136750476447 O 0.0 **** 0.0
1130 H 45.99572182495716 39.66941582513857 14.094836054937836 H 0.0 **** 0.52
1131 H 46.66214832822375 39.970828544841694 12.769348288365045 H 0.0 **** 0.52
1132 M 46.67850048254509 39.9732647724836 13.642670254314389 M 0.0 **** -1.04
1133 O 46.1176204427815 19.791429886644778 3.590872414973187 O 0.0 **** 0.0
1134 H 46.7162479949119 19.594488232137248 4.311349244569213 H 0.0 **** 0.52
1135 H 46.22508771004468 19.06003323098593 2.982811149478837 H 0.0 **** 0.52
1136 M 46.20800941030968 19.672591239907938 3.605262902106537 M 0.0 **** -1.04
1137 O 25.71496897001044 41.817207237701595 20.738782062256675 O 0.0 **** 0.0
1138 H 25.585377217779463 41.162233042225154 21.424670368656336 H 0.0 **** 0.52
1139 H 25.28691437954089 41.44514969469905 19.96769714213508 H 0.0 **** 0.52
1140 M 25.643583930320275 41.68573446874429 20.72787555996966 M 0.0 **** -1.04
1141 O 15.185186128296815 28.030371181432226 39.09555689257931 O 0.0 **** 0.0
1142 H 14.639347292179469 27.602060258053893 39.75498022363351 H 0.0 **** 0.52
1143 H 15.202701334679563 27.415399200477683 38.36225576138901 H 0.0 **** 0.52
1144 M 15.11755322026853 27.896817917199904 39.086099842323165 M 0.0 **** -1.04
1145 O 11.771585503736125 10.987870112120277 46.972049533429285 O 0.0 **** 0.0
1146 H 11.417168366315137 10.202175681749527 46.55575484846385 H 0.0 **** 0.52
1147 H 12.456510422738766 11.287901816965975 46.374481172113704 H 0.0 **** 0.52
1148 M 11.813894699490788 10.925699163116724 46.84226142062774 M 0.0 **** -1.04
1149 O 23.65928801474206 47.763707980220424 44.054986558358074 O 0.0 **** 0.0
1150 H 23.837009867575176 47.322161811695196 43.2245166962319 H 0.0 **** 0.52
1151 H 24.52145747229619 48.02936285062404 44.374860143313526 H 0.0 **** 0.52
1152 M 23.792407251581665 47.74119183289918 43.98962411511241 M 0.0 **** -1.04
1153 O 0.718480981162017 35.55522992035229 33.670511113837804 O 0.0 **** 0.0
1154 H 0.5922945629613565 36.49664884001471 33.55204247415053 H 0.0 **** 0.52
1155 H 1.4548810040192706 35.48638739340181 34.27813437299097 H 0.0 **** 0.52
1156 M 0.7965960024830281 35.66693088865269 33.73312891541827 M 0.0 **** -1.04
1157 O 23.19299237877213 10.896358096822887 30.846747614448113 O 0.0 **** 0.0
1158 H 22.78226005095625 11.543596259861467 31.419992401339545 H 0.0 **** 0.52
1159 H 24.126987846831614 10.956398923066232 31.047436135019577 H 0.0 **** 0.52
1160 M 23.25997657354911 10.986898677629057 30.94582056747948 M 0.0 **** -1.04
1161 O 13.729964575729547 25.757149356170746 5.718605522945778 O 0.0 **** 0.0
1162 H 13.302394514919541 26.370598606798808 5.121033397437582 H 0.0 **** 0.52
1163 H 14.657759860283946 25.80475359051888 5.488045692478016 H 0.0 **** 0.52
1164 M 13.79399966865612 25.841772998880174 5.61259437192153 M 0.0 **** -1.04
1165 O 26.90928966162593 11.274530226710677 34.897622412573114 O 0.0 **** 0.0
1166 H 26.92755112019734 10.70468725174039 34.12874372618699 H 0.0 **** 0.52
1167 H 25.98305829916942 11.331220253769139 35.13237855917434 H 0.0 **** 0.52
1168 M 26.79305759683584 11.208839847909575 34.82924734608247 M 0.0 **** -1.04
1169 O 8.326404390066102 36.820433825784505 46.07249092973908 O 0.0 **** 0.0
1170 H 7.937448808804852 37.560555381972236 45.606484624892296 H 0.0 **** 0.52
1171 H 7.619201904255554 36.485511341763925 46.62378070408179 H 0.0 **** 0.52
1172 M 8.186082444114007 36.87230400684405 46.08340812787165 M 0.0 **** -1.04
1173 O 32.7852027436732 49.59949788471053 26.04321338286096 O 0.0 **** 0.0
1174 H 32.37665007979082 50.279906985046274 25.508090081144108 H 0.0 **** 0.52
1175 H 33.19393366815265 50.07572935446718 26.765965737807 H 0.0 **** 0.52
1176 M 32.7852252451937 49.74756214419519 26.06723195136381 M 0.0 **** -1.04
1177 O 33.19816344905621 35.21881579707781 21.02387387177821 O 0.0 **** 0.0
1178 H 33.32280498271466 35.964738212331 21.610639362698446 H 0.0 **** 0.52
1179 H 34.05626921690951 35.08371643391532 20.621839899061058 H 0.0 **** 0.52
1180 M 33.32396722761854 35.29700883274098 21.047521604781952 M 0.0 **** -1.04
1181 O 36.2565249122501 40.83127209853635 14.184102134584293 O 0.0 **** 0.0
1182 H 35.60897113250627 40.27781250209362 14.620662897671451 H 0.0 **** 0.52
1183 H 35.87234988973803 41.02059142251064 13.328066871832746 H 0.0 **** 0.52
1184 M 36.124450913307214 40.784657969662064 14.13040455240845 M 0.0 **** -1.04
1185 O 26.136019748129904 40.631093401578354 23.314520199658006 O 0.0 **** 0.0
1186 H 26.670044651305883 39.836718335911755 23.310656221415925 H 0.0 **** 0.52
1187 H 25.332979943656937 40.3782076798393 23.769936455694534 H 0.0 **** 0.52
1188 M 26.101582407049353 40.49703032059524 23.37232503427947 M 0.0 **** -1.04
1189 O 39.03203608105064 30.93960627065787 40.55368692127493 O 0.0 **** 0.0
1190 H 38.770912634500476 30.397487461980408 41.29809887271502 H 0.0 **** 0.52
1191 H 39.21941641820009 31.797186378233715 40.93535975924734 H 0.0 **** 0.52
1192 M 39.02259661678948 30.979989378032773 40.69783995560723 M 0.0 **** -1.04
1193 O 43.953799029553615 11.430890554551068 20.34108224063798 O 0.0 **** 0.0
1194 H 43.814192051410494 11.884467326532214 19.509814039329978 H 0.0 **** 0.52
1195 H 44.45050825231786 10.647057814359044 20.106314080791005 H 0.0 **** 0.52
1196 M 43.99951274246555 11.388613333632694 20.20461570798905 M 0.0 **** -1.04
1197 O 23.485943207449807 36.79562612177534 24.34451847832914 O 0.0 **** 0.0
1198 H 23.462715460801856 35.84251165338782 24.25929654778662 H 0.0 **** 0.52
1199 H 22.812655969069873 36.99488396468371 24.995063875348908 H 0.0 **** 0.52
1200 M 23.396779904219642 36.6991229110202 24.416887760790818 M 0.0 **** -1.04
1201 O 29.341591960110883 40.61609971760804 28.80644927149938 O 0.0 **** 0.0
1202 H 29.36734297144855 39.989130444541516 28.083624810902194 H 0.0 **** 0.52
1203 H 28.579012084797817 41.164302363764804 28.621585459017577 H 0.0 **** 0.52
1204 M 29.24726863958032 40.60601630548235 28.69025427528614 M 0.0 **** -1.04
1205 O 7.582405248602532 26.957729303352874 41.25596775537243 O 0.0 **** 0.0
1206 H 7.642062348193229 27.737587744276844 40.704161206551454 H 0.0 **** 0.52
1207 H 6.744502215648584 26.559946324864125 41.019502311867825 H 0.0 **** 0.52
1208 M 7.482780137730088 27.00663978130324 41.155058663213644 M 0.0 **** -1.04
1209 O 0.5034242065850023 6.404744563531068 34.899890782671264 O 0.0 **** 0.0
1210 H 0.7496611826878237 5.6139400552631145 35.37970723969293 H 0.0 **** 0.52
1211 H -0.25220467814859404 6.141282144038485 34.37468576677331 H 0.0 **** 0.52
1212 M 0.43821590258469456 6.269785988754592 34.89408031645022 M 0.0 **** -1.04
1213 O 11.373394977611042 4.72455443393423 1.1095025500445443 O 0.0 **** 0.0
1214 H 10.763747957171935 4.136486354575268 1.555300170692144 H 0.0 **** 0.52
1215 H 12.231010509619479 4.499507622681961 1.4701648658031492 H 0.0 **** 0.52
1216 M 11.405138592667672 4.620465293195849 1.212739167348981 M 0.0 **** -1.04
1217 O 39.74979057473191 39.909990476180305 43.57785472050431 O 0.0 **** 0.0
1218 H 40.14111199954204 39.03689595612273 43.60619212354932 H 0.0 **** 0.52
1219 H 39.275479301618695 39.93353784195209 42.74677009114081 H 0.0 **** 0.52
1220 M 39.739166911686574 39.80123817335021 43.47509335125177 M 0.0 **** -1.04
1221 O 33.49531372375367 49.210858105893124 11.66314095747228 O 0.0 **** 0.0
1222 H 34.29116477846347 49.226425157854415 12.1947489522511 H 0.0 **** 0.52
1223 H 33.76127351695669 48.79085507043598 10.845160635073002 H 0.0 **** 0.52
1224 M 33.631238556674276 49.1590859188869 11.62648207081289 M 0.0 **** -1.04
1225 O 1.950923443529284 19.392808207470054 48.31524760488873 O 0.0 **** 0.0
1226 H 1.0528649565499109 19.06416359648584 48.27387371263245 H 0.0 **** 0.52
1227 H 2.398883461950099 18.959124687223735 47.58896909266339 H 0.0 **** 0.52
1228 M 1.8933055409961312 19.29522032577634 48.21697833846636 M 0.0 **** -1.04
1229 O 39.188282060075345 29.265418310194388 45.63708609941455 O 0.0 **** 0.0
1230 H 39.04548875365694 28.318953300894492 45.63048154395212 H 0.0 **** 0.52
1231 H 38.69176343619857 29.58828715324713 44.88511973984312 H 0.0 **** 0.52
1232 M 39.106441869574695 29.18559052335504 45.53997982058477 M 0.0 **** -1.04
1233 O 5.288954701991131 5.299828399963583 38.4371422222766 O 0.0 **** 0.0
1234 H 5.900461215082108 5.58918049139844 39.11431466411488 H 0.0 **** 0.52
1235 H 4.709060707858754 6.049175335454411 38.301379215473084 H 0.0 **** 0.52
1236 M 5.293001795586957 5.432794880808235 38.50644929270401 M 0.0 **** -1.04
1237 O 2.7902789051472867 44.77539426899397 2.8521564568578057 O 0.0 **** 0.0
1238 H 3.4801671148621693 45.43782250263968 2.8137778891071292 H 0.0 **** 0.52
1239 H 2.5532960644211906 44.72908269595389 3.77839777102065 H 0.0 **** 0.52
1240 M 2.8482566433928937 44.85426556001951 2.9658138859809924 M 0.0 **** -1.04
1241 O 25.781726204567196 41.184909848463604 45.07531353720935 O 0.0 **** 0.0
1242 H 26.280708642007152 41.60468073915578 44.37457314303211 H 0.0 **** 0.52
1243 H 26.373568186577042 41.189951319247754 45.827594732616824 H 0.0 **** 0.52
1244 M 25.921365260151887 41.23929114986072 45.081911543632806 M 0.0 **** -1.04
1245 O 16.88896948971088 3.072515654341613 33.68432111924229 O 0.0 **** 0.0
1246 H 16.052440083078565 2.623567287915952 33.56228402258227 H 0.0 **** 0.52
1247 H 16.773674706341726 3.9172917432472145 33.249247033385295 H 0.0 **** 0.52
1248 M 16.76712444848129 3.123186422068073 33.61300417561897 M 0.0 **** -1.04
1249 O 3.66710277832404 25.190657311783255 31.42080439379182 O 0.0 **** 0.0
1250 H 2.737573384319883 25.09189943086997 31.62684448603939 H 0.0 **** 0.52
1251 H 4.112791337930232 24.61143072263508 32.03893517584489 H 0.0 **** 0.52
1252 M 3.6051646738987895 25.103866499925996 31.52630896272786 M 0.0 **** -1.04
1253 O 22.909874403778304 8.496537302017146 22.566769818975867 O 0.0 **** 0.0
1254 H 23.8472286155813 8.303162676567993 22.58099214058488 H 0.0 **** 0.52
1255 H 22.551732365766142 7.900085852562597 21.9093443250517 H 0.0 **** 0.52
1256 M 22.984020647839504 8.395429202413709 22.484431463046153 M 0.0 **** -1.04
1257 O 2.991167900171657 29.621302910854904 15.098313572044816 O 0.0 **** 0.0
1258 H 2.905446966424483 29.08791816881378 15.888490622557327 H 0.0 **** 0.52
1259 H 3.5501071105902824 29.10363820808062 14.51879780201466 H 0.0 **** 0.52
1260 M 3.0517465124657304 29.486755495485646 15.125281036311264 M 0.0 **** -1.04
1261 O 5.384449882847868 36.95385377652593 6.860534267192847 O 0.0 **** 0.0
1262 H 4.557655359745262 36.9489797727022 7.342836119431169 H 0.0 **** 0.52
1263 H 5.632250587001259 36.03128940959108 6.799713179168791 H 0.0 **** 0.52
1264 M 5.31033053760563 36.83513004071304 6.914489067716019 M 0.0 **** -1.04
1265 O 1.0068008696748407 5.606799790336055 21.857412039463036 O 0.0 **** 0.0
1266 H 0.45326612705999736 4.8774347342302775 22.136437645346792 H 0.0 **** 0.52
1267 H 1.8294398229708335 5.195801864024169 21.591752368887924 H 0.0 **** 0.52
1268 M 1.041249647224383 5.460819149415201 21.859122959294716 M 0.0 **** -1.04
1269 O 1.1640506246540958 0.9419699295465236 8.554784869477698 O 0.0 **** 0.0
1270 H 0.481147524626072 1.6109146144057647 8.505957684561256 H 0.0 **** 0.52
1271 H 1.9223776096271354 1.3416244170132714 8.128821275108905 H 0.0 **** 0.52
1272 M 1.1737060170914069 1.078763408170147 8.494006253756918 M 0.0 **** -1.04
1273 O 23.648731283839552 20.87565280353707 23.721825451333487 O 0.0 **** 0.0
1274 H 23.6268048021784 20.170558598157225 23.074840319743203 H 0.0 **** 0.52
1275 H 23.294342467592642 21.635787660577222 23.260487794738207 H 0.0 **** 0.52
1276 M 23.600557811889033 20.88269892784478 23.57994563831389 M 0.0 **** -1.04
1277 O 24.414902636732727 18.22952599067368 36.74467658494479 O 0.0 **** 0.0
1278 H 24.073632846638507 17.873758404568946 37.565159809568634 H 0.0 **** 0.52
1279 H 23.92638188716383 19.042220902283503 36.613893850300606 H 0.0 **** 0.52
1280 M 24.308678759514194 18.288018829788967 36.832967089971625 M 0.0 **** -1.04
1281 O 16.710133584898685 15.998334031536274 6.557398281236971 O 0.0 **** 0.0
1282 H 17.05706311246597 16.395585197968146 5.758611866357668 H 0.0 **** 0.52
1283 H 16.241614757614897 15.220475778385463 6.254651310921716 H 0.0 **** 0.52
1284 M 16.69456852157174 15.949611792258054 6.416388509081457 M 0.0 **** -1.04
1285 O 21.757953608247565 0.2992008138704563 25.954897547677557 O 0.0 **** 0.0
1286 H 21.89233935638197 1.1718314557613922 25.585186962161153 H 0.0 **** 0.52
1287 H 21.08739763294756 0.4237654664625694 26.626513820754376 H 0.0 **** 0.52
1288 M 21.689317075095683 0.4268548341717491 25.99354491906026 M 0.0 **** -1.04
1289 O 42.07072181244847 8.110324222903117 34.313427983505164 O 0.0 **** 0.0
1290 H 42.25698548184356 8.381614206760176 35.21228046716412 H 0.0 **** 0.52
1291 H 42.920866253536346 7.8468196070673315 33.961220213904376 H 0.0 **** 0.52
1292 M 42.20339547247379 8.111320532397372 34.38340477803657 M 0.0 **** -1.04
1293 O 29.71601841091307 7.974828703661473 3.4859230984145535 O 0.0 **** 0.0
1294 H 29.602789472603906 8.818234237778483 3.0476598822767915 H 0.0 **** 0.52
1295 H 28.892239998248915 7.834432136466958 3.95272679548513 H 0.0 **** 0.52
1296 M 29.596070277429558 8.064822380816722 3.4895764174402037 M 0.0 **** -1.04
1297 O 27.157518596282912 22.523141704877045 11.172273098025094 O 0.0 **** 0.0
1298 H 26.436704120447132 22.333794711158248 10.57160386765387 H 0.0 **** 0.52
1299 H 27.947847213600838 22.346143540804643 10.662095322836052 H 0.0 **** 0.52
1300 M 27.166417296257464 22.476245214250365 11.030070625052034 M 0.0 **** -1.04
1301 O 20.937249580036397 10.840310745487905 33.20038084312876 O 0.0 **** 0.0
1302 H 20.619250732942927 10.534504632872917 32.350917529877805 H 0.0 **** 0.52
1303 H 20.158809912166152 11.184526895016603 33.63830171066472 H 0.0 **** 0.52
1304 M 20.796891613354042 10.845227423618084 33.14769849980624 M 0.0 **** -1.04
1305 O 12.136223017543427 35.128158734056015 18.858106731491386 O 0.0 **** 0.0
1306 H 12.48712449544734 34.24549241960749 18.739793952235324 H 0.0 **** 0.52
1307 H 12.402799450275861 35.60013719332226 18.069182781513376 H 0.0 **** 0.52
1308 M 12.215268063241966 35.07558529677826 18.74196876362425 M 0.0 **** -1.04
1309 O 22.52769217219256 31.804065318373755 48.732838166432295 O 0.0 **** 0.0
1310 H 22.52956156365801 32.43181397155886 48.0102352189482 H 0.0 **** 0.52
1311 H 23.069961950102545 31.079003892809077 48.42226050417624 H 0.0 **** 0.52
1312 M 22.597348740647764 31.791607918967042 48.60057797212931 M 0.0 **** -1.04
1313 O 13.973125560463432 23.803956765640134 24.47496941541763 O 0.0 **** 0.0
1314 H 13.142324043751652 23.329161811339002 24.451151680969886 H 0.0 **** 0.52
1315 H 14.443433485138863 23.427517442863838 25.218832942218643 H 0.0 **** 0.52
1316 M 13.926977987534608 23.694987602744973 24.567144925129796 M 0.0 **** -1.04
1317 O 41.703944558315754 31.903503021918976 16.92354500958247 O 0.0 **** 0.0
1318 H 41.065110116573095 32.23191372839516 16.290879690884893 H 0.0 **** 0.52
1319 H 41.27834797707817 32.014043295600395 17.773767604984897 H 0.0 **** 0.52
1320 M 41.56768401953042 31.9596935624871 16.951394940095568 M 0.0 **** -1.04
1321 O 9.418476213831743 33.47377952955064 29.071154317359344 O 0.0 **** 0.0
1322 H 8.754843207473478 32.784284746241184 29.091563206260616 H 0.0 **** 0.52
1323 H 9.823340618598706 33.39171046311826 28.20768590555214 H 0.0 **** 0.52
1324 M 9.385350063041054 33.3750090729982 28.963232523187727 M 0.0 **** -1.04
1325 O 49.31041360905806 10.491915904714446 3.9926209071261103 O 0.0 **** 0.0
1326 H 48.63127975353871 9.851674213194014 3.780261066681961 H 0.0 **** 0.52
1327 H 48.85576365380622 11.16500607696288 4.4990507148892895 H 0.0 **** 0.52
1328 M 49.165275159327585 10.496121337309061 4.030264956862104 M 0.0 **** -1.04
1329 O 39.118325469512875 45.37313292943324 30.820245502856718 O 0.0 **** 0.0
1330 H 39.97015780039295 45.71591757833669 30.549859512180415 H 0.0 **** 0.52
1331 H 38.64830508160971 46.13620155909296 31.156456199475734 H 0.0 **** 0.52
1332 M 39.16720262559281 45.51469657200706 30.82867106662157 M 0.0 **** -1.04
1333 O 46.388120176740934 5.917460403767613 24.215959617204398 O 0.0 **** 0.0
1334 H 47.182001896577425 5.52217895385467 24.57614569295717 H 0.0 **** 0.52
1335 H 45.888251345337096 6.194394544209253 24.983856945907792 H 0.0 **** 0.52
1336 M 46.4257581059787 5.902310371046518 24.360368552060393 M 0.0 **** -1.04
1337 O 7.3021642897736 17.702229540006382 23.558493213626303 O 0.0 **** 0.0
1338 H 6.828019377720722 17.433160642669456 22.77171780500034 H 0.0 **** 0.52
1339 H 7.427404603724966 18.6452594765403 23.452485469798347 H 0.0 **** 0.52
1340 M 7.257500564475336 17.788504716451516 23.44420585114099 M 0.0 **** -1.04
1341 O 7.79847055350141 33.38420661082384 13.33470206924703 O 0.0 **** 0.0
1342 H 8.375309079813938 34.10916209098101 13.094028373697604 H 0.0 **** 0.52
1343 H 6.988530934951045 33.80669994443971 13.620579262061312 H 0.0 **** 0.52
1344 M 7.768630316351447 33.53109399292694 13.34048843008312 M 0.0 **** -1.04
1345 O 49.21840864302945 28.10821249290916 39.576098558986 O 0.0 **** 0.0
1346 H 48.61174314003724 27.561884959218332 39.07638645367058 H 0.0 **** 0.52
1347 H 50.05158961971597 27.63856688984402 39.53774777673141 H 0.0 **** 0.52
1348 M 49.24740594172397 27.978155254677855 39.50721949895286 M 0.0 **** -1.04
1349 O 6.412121802822078 45.66681345989744 41.24749878819276 O 0.0 **** 0.0
1350 H 7.004942933569481 46.32346520318767 40.881986165565955 H 0.0 **** 0.52
1351 H 6.818292259691191 44.828252710820365 41.02825282878126 H 0.0 **** 0.52
1352 M 6.540004874081241 45.64352733648215 41.17264250317528 M 0.0 **** -1.04
1353 O 23.87606966946449 48.2403091561138 34.44945027888539 O 0.0 **** 0.0
1354 H 23.51311521789588 48.73163062070109 35.18640139455068 H 0.0 **** 0.52
1355 H 24.72462332493272 47.928202147485386 34.76373600231792 H 0.0 **** 0.52
1356 M 23.938232237395088 48.26325075468874 34.58402135418799 M 0.0 **** -1.04
1357 O 18.405656376307462 46.45872150211939 26.625861138424625 O 0.0 **** 0.0
1358 H 17.795114428625226 46.16283973493973 27.30108069732104 H 0.0 **** 0.52
1359 H 17.991300485463327 47.23623970628001 26.251691343851565 H 0.0 **** 0.52
1360 M 18.27445681446153 46.52037719718507 26.664398809687746 M 0.0 **** -1.04
1361 O 9.91423639836276 20.171958650522658 27.954068203426516 O 0.0 **** 0.0
1362 H 9.861958162809678 19.28659208537666 27.594035872464236 H 0.0 **** 0.52
1363 H 9.512900509293978 20.727014735494702 27.285435152578017 H 0.0 **** 0.52
1364 M 9.856168556441972 20.129674495615077 27.8223861520322 M 0.0 **** -1.04
1365 O 3.260604658059158 7.329088594308894 17.099721436354542 O 0.0 **** 0.0
1366 H 3.4048293833064847 6.844291430244724 16.287071737172482 H 0.0 **** 0.52
1367 H 2.957812708599782 8.191139509010755 16.814393163249136 H 0.0 **** 0.52
1368 M 3.240306610893917 7.377381541235871 16.959167044607483 M 0.0 **** -1.04
1369 O 45.41553273809157 3.364166187034138 0.48422660618699354 O 0.0 **** 0.0
1370 H 45.52325563091794 3.6302119918463633 -0.42892365948745237 H 0.0 **** 0.52
1371 H 44.88218522824704 2.5704684133387987 0.4416312049319586 H 0.0 **** 0.52
1372 M 45.36104775015209 3.296620263017757 0.3618791415299043 M 0.0 **** -1.04
1373 O 1.2285985168934062 17.659108880060593 7.758419570957424 O 0.0 **** 0.0
1374 H 0.509868678064187 17.29246401759346 8.273421614843686 H 0.0 **** 0.52
1375 H 1.3029879551873336 18.564300391694623 8.060615904922715 H 0.0 **** 0.52
1376 M 1.1461150005295124 17.728049473082073 7.863031696144211 M 0.0 **** -1.04
1377 O 4.056904369576628 2.066255821876581 45.32839410346486 O 0.0 **** 0.0
1378 H 4.051591539475602 3.022557289657037 45.369473340689375 H 0.0 **** 0.52
1379 H 3.731618973885986 1.8618941861359986 44.45166504369697 H 0.0 **** 0.52
1380 M 4.014583769013498 2.162513688852961 45.22142019855751 M 0.0 **** -1.04
1381 O 47.26263085097126 32.11228114005925 19.859898032857046 O 0.0 **** 0.0
1382 H 47.755887367537106 31.78950669804554 19.105746899649546 H 0.0 **** 0.52
1383 H 47.61268053331773 32.988994644957465 20.01822324585644 H 0.0 **** 0.52
1384 M 47.37058474664438 32.18319254159491 19.783624539727075 M 0.0 **** -1.04
1385 O 29.88839465617724 22.495682312319712 1.0077537200500188 O 0.0 **** 0.0
1386 H 29.775375929062 22.756362209835746 1.921811244591467 H 0.0 **** 0.52
1387 H 29.864658787608846 23.31829343696156 0.5189016884603603 H 0.0 **** 0.52
1388 M 29.87088859871867 22.634357171815875 1.0621857020182475 M 0.0 **** -1.04
1389 O 2.6762709269925953 27.460534125304406 17.00098182279916 O 0.0 **** 0.0
1390 H 3.3398453277890146 27.170171024224 17.626749368267 H 0.0 **** 0.52
1391 H 1.8528912941630304 27.417964932679087 17.487256320574744 H 0.0 **** 0.52
1392 M 2.655813360382229 27.41791453745463 17.14333689889027 M 0.0 **** -1.04
1393 O 37.33193030970027 10.429732737979243 20.524833115961627 O 0.0 **** 0.0
1394 H 38.12378323005027 10.060354583523903 20.91567434218751 H 0.0 **** 0.52
1395 H 36.62208164116801 9.878614561088192 20.85439756661077 H 0.0 **** 0.52
1396 M 37.34242730448948 10.311898128479825 20.617054336374835 M 0.0 **** -1.04
1397 O 9.996507141187678 42.93671240098679 25.127823196526407 O 0.0 **** 0.0
1398 H 9.575087919302106 42.55294837502369 24.358824109694808 H 0.0 **** 0.52
1399 H 9.68064298658917 42.410396741137724 25.862296571010667 H 0.0 **** 0.52
1400 M 9.902125279516916 42.820210840858074 25.123403173547427 M 0.0 **** -1.04
1401 O 16.42712277379573 48.50565980921983 26.084329722739753 O 0.0 **** 0.0
1402 H 16.240350323698834 48.374787669053546 27.01396274789424 H 0.0 **** 0.52
1403 H 15.709540591827064 48.0633853841602 25.630791611481115 H 0.0 **** 0.52
1404 M 16.311354168517582 48.43229054500567 26.145276614765493 M 0.0 **** -1.04
1405 O 31.50703125180131 0.8510773090259889 44.25409600310935 O 0.0 **** 0.0
1406 H 32.29647373351091 1.2461554051948767 43.884064195424706 H 0.0 **** 0.52
1407 H 30.934357413243617 0.7081578029896107 43.500539465520745 H 0.0 **** 0.52
1408 M 31.534780620319978 0.8833558590865849 44.110262576338 M 0.0 **** -1.04
1409 O 12.81781121390575 19.746989964694016 32.4527803078413 O 0.0 **** 0.0
1410 H 13.135888499268386 20.550021047987027 32.0402315923043 H 0.0 **** 0.52
1411 H 11.933610073291698 19.963248636168178 32.74883441625674 H 0.0 **** 0.52
1412 M 12.745340598867925 19.877471397087497 32.43786795089894 M 0.0 **** -1.04
1413 O 4.028980848949132 27.869461627989928 47.03598949356851 O 0.0 **** 0.0
1414 H 4.769765063397509 27.3952250407373 46.658408767455455 H 0.0 **** 0.52
1415 H 4.097412467032692 28.751574767620106 46.67071837022691 H 0.0 **** 0.52
1416 M 4.132569971636441 27.92167468924997 46.940895142065756 M 0.0 **** -1.04
1417 O 42.97999482611589 17.909383762497228 20.438544398225346 O 0.0 **** 0.0
1418 H 42.48930193871717 17.412623968864096 19.7838082786598 H 0.0 **** 0.52
1419 H 43.898385679366136 17.765132673622404 20.210556525921607 H 0.0 **** 0.52
1420 M 43.034745428506774 17.827327243092995 20.32554466002611 M 0.0 **** -1.04
1421 O 15.857904075275762 3.3491452377788846 29.015292089036187 O 0.0 **** 0.0
1422 H 15.04731284308231 3.134518734869957 29.47692537407415 H 0.0 **** 0.52
1423 H 16.47261330839248 3.5891764519267824 29.70865108203007 H 0.0 **** 0.52
1424 M 15.832828822972175 3.3523969788503933 29.163145848484195 M 0.0 **** -1.04
1425 O 29.037320066479996 46.49154313175981 48.491987025506 O 0.0 **** 0.0
1426 H 29.736108420789172 46.79081970532856 47.910303067828735 H 0.0 **** 0.52
1427 H 28.29431134751956 46.32917628705763 47.91077853649495 H 0.0 **** 0.52
1428 M 29.03165921537618 46.5090694540809 48.34312180747418 M 0.0 **** -1.04
1429 O 43.18302579836547 33.00896462949645 2.7002083726380093 O 0.0 **** 0.0
1430 H 42.547563470044 33.513396280583336 3.2081104993891856 H 0.0 **** 0.52
1431 H 43.782516344524296 33.665640850439885 2.3457847748486245 H 0.0 **** 0.52
1432 M 43.178421062079856 33.157600868024154 2.719856470181 M 0.0 **** -1.04
1433 O 5.91716515522931 27.76468355235582 8.631109969144415 O 0.0 **** 0.0
1434 H 6.290687575019073 27.17613025615991 9.287093700881732 H 0.0 **** 0.52
1435 H 6.662372187236283 28.27544751036701 8.314855837078483 H 0.0 **** 0.52
1436 M 6.060376345752651 27.754726089114918 8.674599246623876 M 0.0 **** -1.04
1437 O 33.262185720428825 25.019207173101336 39.72608623453859 O 0.0 **** 0.0
1438 H 33.112398016935366 24.13489964268092 40.06044080934319 H 0.0 **** 0.52
1439 H 32.52718105045683 25.531110540618812 40.063653634087935 H 0.0 **** 0.52
1440 M 33.14892148131358 24.971534730213435 39.81210020537323 M 0.0 **** -1.04
1441 O 32.96984964078406 44.183166214101306 35.50379750952962 O 0.0 **** 0.0
1442 H 33.47329610633329 44.111939937306516 34.692811914852285 H 0.0 **** 0.52
1443 H 32.062481504917116 44.2811672044253 35.215167821397785 H 0.0 **** 0.52
1444 M 32.91814208563444 44.18659360822167 35.36303286026356 M 0.0 **** -1.04
1445 O 46.50317224446549 16.390828552736025 35.31928395392388 O 0.0 **** 0.0
1446 H 45.827199827340095 16.349578894333334 35.99573651149827 H 0.0 **** 0.52
1447 H 46.9268390006927 15.533073677406904 35.350751491763006 H 0.0 **** 0.52
1448 M 46.47087447933377 16.27574491478643 35.40990699165601 M 0.0 **** -1.04
1449 O 34.44513992777865 43.93300527611531 23.02003395386212 O 0.0 **** 0.0
1450 H 33.831404455732894 43.632881556822056 22.349597296612824 H 0.0 **** 0.52
1451 H 34.24569642911868 43.394909305104086 23.786130411527868 H 0.0 **** 0.52
1452 M 34.34104217492661 43.82570285021589 23.032279173551366 M 0.0 **** -1.04
1453 O 24.283495706227686 45.12155645201898 39.83026537168555 O 0.0 **** 0.0
1454 H 23.530392183045308 45.175476503456935 39.24191372037061 H 0.0 **** 0.52
1455 H 24.060413441875315 44.419918083510474 40.44195633555778 H 0.0 **** 0.52
1456 M 24.158532094146363 45.03864042767431 39.833252753060854 M 0.0 **** -1.04
1457 O 5.596548954242579 26.34212301801391 45.66727329636407 O 0.0 **** 0.0
1458 H 6.0837750026994115 25.753269441855895 46.24354743306837 H 0.0 **** 0.52
1459 H 6.271836870731335 26.813960273870485 45.17984533994872 H 0.0 **** 0.52
1460 M 5.745365163020608 26.327143439141103 45.6786465569665 M 0.0 **** -1.04
1461 O 20.19899709002188 23.549582940299693 4.426007564271664 O 0.0 **** 0.0
1462 H 19.927345827400384 22.83002604104509 3.8562068973001544 H 0.0 **** 0.52
1463 H 19.88904849297252 24.33829421644198 3.9809290512303477 H 0.0 **** 0.52
1464 M 20.124545625723137 23.558435292548044 4.296090365250642 M 0.0 **** -1.04
1465 O 23.105266773856215 26.657481291288676 30.648886290748177 O 0.0 **** 0.0
1466 H 22.883194706826913 26.88232329664038 29.745360050431128 H 0.0 **** 0.52
1467 H 22.912586486896586 25.722411993064895 30.71779716647277 H 0.0 **** 0.52
1468 M 23.052172728431003 26.566562649802048 30.54204468237576 M 0.0 **** -1.04
1469 O 15.184392803635562 38.33266133166817 16.542104999577635 O 0.0 **** 0.0
1470 H 15.278437357587043 38.76508345360729 15.693344854233231 H 0.0 **** 0.52
1471 H 14.40240372163463 38.727898937579425 16.92747350317022 H 0.0 **** 0.52
1472 M 15.096327178918962 38.43861185874875 16.482785645799915 M 0.0 **** -1.04
1473 O 46.78088905202147 24.488394826128847 5.638982694046019 O 0.0 **** 0.0
1474 H 46.948904011884515 24.8217622058238 6.520382423783714 H 0.0 **** 0.52
1475 H 47.25204580674594 25.088928879221942 5.061402852900893 H 0.0 **** 0.52
1476 M 46.862711157393804 24.607945890020723 5.677876161437596 M 0.0 **** -1.04
1477 O 2.886350456288569 13.164410125826784 26.854263981370206 O 0.0 **** 0.0
1478 H 2.050935595077215 13.608680885012504 26.998950206445723 H 0.0 **** 0.52
1479 H 3.219447303488623 13.539236510266122 26.038922154096902 H 0.0 **** 0.52
1480 M 2.8220474467751306 13.269265143290852 26.768410700086697 M 0.0 **** -1.04
1481 O 16.644352053949262 21.49352610564317 13.805750696181356 O 0.0 **** 0.0
1482 H 17.443096899348276 20.982997070968068 13.938392761628634 H 0.0 **** 0.52
1483 H 16.949194075842854 22.396003375017415 13.71175493244418 H 0.0 **** 0.52
1484 M 16.78562486051044 21.54369993822236 13.810697539277413 M 0.0 **** -1.04
1485 O 12.837521936247732 39.611161945938555 17.75616262479904 O 0.0 **** 0.0
1486 H 12.381228859286054 39.297597542498295 18.536998158382136 H 0.0 **** 0.52
1487 H 12.977227317238238 40.54413222234554 17.918264511013778 H 0.0 **** 0.52
1488 M 12.796994621496111 39.690453375194934 17.8768702022849 M 0.0 **** -1.04
1489 O 2.2439061145592447 23.282715105256464 43.29901532897401 O 0.0 **** 0.0
1490 H 2.9831968947269445 23.886180126654704 43.373223481145196 H 0.0 **** 0.52
1491 H 1.5544418444389123 23.79816485336399 42.880470918425814 H 0.0 **** 0.52
1492 M 2.2502839593544763 23.425950137770418 43.25493603280801 M 0.0 **** -1.04
1493 O 0.4820000180618811 13.983084631333682 20.276248025857853 O 0.0 **** 0.0
1494 H 0.6116396134641838 13.737541203314407 19.360207415486613 H 0.0 **** 0.52
1495 H 0.7598769263652344 14.897962259774815 20.32111353369578 H 0.0 **** 0.52
1496 M 0.5341674313902329 14.068767930904158 20.164725991737498 M 0.0 **** -1.04
1497 O 19.526308015213885 32.9977254214592 10.607807889612772 O 0.0 **** 0.0
1498 H 19.91393995736263 33.812525123619515 10.927293360753966 H 0.0 **** 0.52
1499 H 18.585740454316394 33.17346445486719 10.58177976803267 H 0.0 **** 0.52
1500 M 19.455525488943522 33.12452694917362 10.645374000232165 M 0.0 **** -1.04
1501 O 49.21991874324186 48.37048022445714 40.343419372072646 O 0.0 **** 0.0
1502 H 48.30042193525669 48.2229269799746 40.56473628065825 H 0.0 **** 0.52
1503 H 49.69587618710736 48.1702327641448 41.14939327575476 H 0.0 **** 0.52
1504 M 49.16314076531332 48.3259569068332 40.47492589366799 M 0.0 **** -1.04
1505 O 27.37110255893607 48.40292361094387 25.33235452840243 O 0.0 **** 0.0
1506 H 27.826097465197225 48.981411146180136 25.944367564969188 H 0.0 **** 0.52
1507 H 26.620390609077653 48.91479738789761 25.03128227052091 H 0.0 **** 0.52
1508 M 27.33324699701994 48.542503635837676 25.372159024011086 M 0.0 **** -1.04
1509 O 4.548011821364128 23.25392575146957 36.167761313369695 O 0.0 **** 0.0
1510 H 5.235215456785383 23.913978067343063 36.25892478136151 H 0.0 **** 0.52
1511 H 3.9010087112311 23.659251529401878 35.59041784862779 H 0.0 **** 0.52
1512 M 4.553157437548933 23.39030754331056 36.10552432140085 M 0.0 **** -1.04
1513 O 48.52899847738891 4.07584982208098 16.376983926311 O 0.0 **** 0.0
1514 H 49.383452370301974 4.317781748512852 16.73420313852228 H 0.0 **** 0.52
1515 H 48.729001012171445 3.65317414782782 15.541775231830755 H 0.0 **** 0.52
1516 M 48.66398174996227 4.052711563456396 16.315795726384955 M 0.0 **** -1.04
1517 O 46.44321267070419 12.99142238268113 21.373848668275066 O 0.0 **** 0.0
1518 H 45.633500625239115 12.503371041285236 21.224176320575413 H 0.0 **** 0.52
1519 H 47.110904779606585 12.501584879726094 20.893770573895885 H 0.0 **** 0.52
1520 M 46.42503275481153 12.866240560763526 21.293232814930093 M 0.0 **** -1.04
1521 O 23.270912843107087 48.95999806814564 36.998892144011435 O 0.0 **** 0.0
1522 H 23.894255658750335 49.51031450700693 37.47304919481988 H 0.0 **** 0.52
1523 H 23.439210619246488 48.07445516261302 37.320946831994355 H 0.0 **** 0.52
1524 M 23.37225296984283 48.91708457641099 37.100817528883695 M 0.0 **** -1.04
1525 O 4.632658171151987 18.96521080902852 0.8460298160864222 O 0.0 **** 0.0
1526 H 4.205661338883541 19.176720036404546 1.6761904927150333 H 0.0 **** 0.52
1527 H 4.778316949249934 18.01996607161945 0.8850666324581373 H 0.0 **** 0.52
1528 M 4.596643568970857 18.87128334745408 0.9572988314586949 M 0.0 **** -1.04
1529 O 23.518403474047858 29.318819272392822 39.94769827410961 O 0.0 **** 0.0
1530 H 24.44948939126442 29.411741898921093 39.74602243289053 H 0.0 **** 0.52
1531 H 23.381930798648682 29.876465626468935 40.71361953567464 H 0.0 **** 0.52
1532 M 23.62012358213316 29.402101055528362 40.019928790277554 M 0.0 **** -1.04
1533 O 22.98214300535108 40.87123686380009 42.60720550168828 O 0.0 **** 0.0
1534 H 23.06613302762237 40.80868096092834 41.655753751068666 H 0.0 **** 0.52
1535 H 23.0930182765327 41.80281879744618 42.79718298063244 H 0.0 **** 0.52
1536 M 23.007088416364468 40.98248335175444 42.50972736669788 M 0.0 **** -1.04
1537 O 38.6765098617085 18.693528405364923 31.101108683216307 O 0.0 **** 0.0
1538 H 39.51272481291117 19.105487670872186 31.318509922030394 H 0.0 **** 0.52
1539 H 38.016049296585976 19.31604903407661 31.405228926653848 H 0.0 **** 0.52
1540 M 38.69900883496023 18.825954431586396 31.16786992053133 M 0.0 **** -1.04
1541 O 31.304182800097596 17.072588695982105 36.11363646006386 O 0.0 **** 0.0
1542 H 31.99126470610772 16.827955685817045 35.49371635845342 H 0.0 **** 0.52
1543 H 31.747701445714714 17.624076257961335 36.75813797148007 H 0.0 **** 0.52
1544 M 31.448913867138252 17.111869698269217 36.11678331589293 M 0.0 **** -1.04
1545 O 44.68675532536301 16.208645578200365 13.218743488563597 O 0.0 **** 0.0
1546 H 43.831465317190606 16.538610832007837 12.94336725920283 H 0.0 **** 0.52
1547 H 44.485574472619895 15.463869394750114 13.78536856966447 H 0.0 **** 0.52
1548 M 44.55151361725933 16.155544412379697 13.256026132027813 M 0.0 **** -1.04
1549 O 0.3858374703815315 47.672450984443934 29.418528355275686 O 0.0 **** 0.0
1550 H 0.8246999329802662 48.20218503314362 28.752937223791918 H 0.0 **** 0.52
1551 H -0.47816195279909834 48.073433136298654 29.513114420223676 H 0.0 **** 0.52
1552 M 0.33141436013234227 47.79159440426813 29.345432058075374 M 0.0 **** -1.04
1553 O 36.42698738525382 6.453497563802833 5.8615329981411435 O 0.0 **** 0.0
1554 H 35.96764768088893 7.059368525419478 5.280021078358274 H 0.0 **** 0.52
1555 H 35.78390968579327 5.770955219489566 6.05340491910593 H 0.0 **** 0.52
1556 M 36.28586452934983 6.44368302045043 5.81165452395355 M 0.0 **** -1.04
1557 O 13.031462182989078 16.556756172808427 18.185224559212045 O 0.0 **** 0.0
1558 H 12.685030500342164 15.834521902829353 18.70924008444753 H 0.0 **** 0.52
1559 H 13.76317822845405 16.897256974138152 18.699888933210786 H 0.0 **** 0.52
1560 M 13.080783174006324 16.507889825075463 18.318188332377176 M 0.0 **** -1.04
1561 O 14.129953328093073 31.081489989329917 23.272030587286224 O 0.0 **** 0.0
1562 H 13.937454586696493 30.147499378030822 23.18935459843877 H 0.0 **** 0.52
1563 H 13.300435992110511 31.5159705334153 23.073649552172782 H 0.0 **** 0.52
1564 M 13.99912246428543 31.01754667553161 23.236051383545202 M 0.0 **** -1.04
1565 O 45.865173306731165 13.793012389533247 14.788935842694478 O 0.0 **** 0.0
1566 H 46.30779404672112 13.574106530929098 13.968938381070794 H 0.0 **** 0.52
1567 H 46.55178853551831 14.170056740131647 15.339048874996168 H 0.0 **** 0.52
1568 M 46.00972974859325 13.813255727877005 14.754386866532133 M 0.0 **** -1.04
1569 O 27.970590166711165 24.574103390876438 12.409881562514013 O 0.0 **** 0.0
1570 H 27.67856778613943 24.265009865101806 13.26744393579769 H 0.0 **** 0.52
1571 H 27.827734494105606 23.82987696439887 11.825118520151255 H 0.0 **** 0.52
1572 M 27.91492005959263 24.439265233492186 12.444803457975778 M 0.0 **** -1.04
1573 O 6.285906806887397 2.175641174200507 11.87498429646578 O 0.0 **** 0.0
1574 H 6.379029082911941 1.315458558268702 12.284426306172584 H 0.0 **** 0.52
1575 H 7.178616554311752 2.518157655245723 11.830478376242134 H 0.0 **** 0.52
1576 M 6.412105964099489 2.109373521788484 11.921700359749797 M 0.0 **** -1.04
1577 O 13.561360666515498 1.006129060214381 35.30115415528359 O 0.0 **** 0.0
1578 H 13.165348195550969 0.2555477665975594 34.85839999163434 H 0.0 **** 0.52
1579 H 12.951528524149673 1.2168556768176448 36.008210048305585 H 0.0 **** 0.52
1580 M 13.432600200599381 0.9370214446122732 35.334988044564156 M 0.0 **** -1.04
1581 O 49.51893621555225 31.308083884871635 48.385754923617384 O 0.0 **** 0.0
1582 H 50.44411953090566 31.14429037198127 48.5686104306755 H 0.0 **** 0.52
1583 H 49.271437881884765 31.998819598300173 49.00045578548595 H 0.0 **** 0.52
1584 M 49.605688346337494 31.37553891363767 48.48785226738506 M 0.0 **** -1.04
1585 O 11.830640293567011 23.221351731552517 0.8378740965469582 O 0.0 **** 0.0
1586 H 11.125676334806707 23.80643002408481 0.5604954457506276 H 0.0 **** 0.52
1587 H 11.380609921358806 22.462465913508684 1.2090812618808155 H 0.0 **** 0.52
1588 M 11.68278632240562 23.199101898275345 0.8498855950774207 M 0.0 **** -1.04
1589 O 17.83862457192581 0.8399077676860713 38.42258586309373 O 0.0 **** 0.0
1590 H 17.55213175896329 1.222810955279094 37.59340831094172 H 0.0 **** 0.52
1591 H 17.138629399391743 0.232045124051929 38.66078477293589 H 0.0 **** 0.52
1592 M 17.71234189322165 0.8111097213791609 38.34693294791392 M 0.0 **** -1.04
1593 O 24.93147802537723 31.52540671689023 21.886361886322614 O 0.0 **** 0.0
1594 H 25.625986243714802 30.867027905662837 21.865769209432784 H 0.0 **** 0.52
1595 H 24.601962099259115 31.498625072850984 22.784655851994323 H 0.0 **** 0.52
1596 M 24.97820140973019 31.437697052031396 21.998719305708068 M 0.0 **** -1.04
1597 O 37.919140625468 29.81245782024401 31.993002901069826 O 0.0 **** 0.0
1598 H 38.051098968962364 30.638407570446166 31.52757673954848 H 0.0 **** 0.52
1599 H 37.070349284469955 29.495793817109043 31.683963257091015 H 0.0 **** 0.52
1600 M 37.827377073238516 29.877652441347976 31.893862062232756 M 0.0 **** -1.04
1601 O 41.1694842387331 25.69767702208583 15.244930510335045 O 0.0 **** 0.0
1602 H 40.807904956761504 26.23165480876466 15.952290125575864 H 0.0 **** 0.52
1603 H 40.55410950389773 25.810455712715573 14.520482671389892 H 0.0 **** 0.52
1604 M 41.04442136506294 25.780469673472258 15.242743028273296 M 0.0 **** -1.04
1605 O 21.464734064732514 5.384440903805228 26.200167402943208 O 0.0 **** 0.0
1606 H 21.7736544256846 5.197483817914083 27.086645914801746 H 0.0 **** 0.52
1607 H 22.136769803743228 5.013171564535128 25.628540721492044 H 0.0 **** 0.52
1608 M 21.59030945072638 5.31298067917038 26.240472411919985 M 0.0 **** -1.04
1609 O 4.127596613576202 36.45425106145013 12.394934954030681 O 0.0 **** 0.0
1610 H 4.470476407902908 35.80519712000141 11.780613044939315 H 0.0 **** 0.52
1611 H 3.215986889963496 36.1966627955275 12.532213819232297 H 0.0 **** 0.52
1612 M 4.054791479841967 36.33818971296411 12.333867519259336 M 0.0 **** -1.04
1613 O 42.127559639270274 14.019157860573245 10.938383994905116 O 0.0 **** 0.0
1614 H 42.88856700511597 13.465529233021071 11.11328729914247 H 0.0 **** 0.52
1615 H 42.0295540953357 14.549255538781704 11.729345686928788 H 0.0 **** 0.52
1616 M 42.21243183598973 14.016146511642358 11.06202671171701 M 0.0 **** -1.04
1617 O 31.002984034153542 35.430103706491764 24.222508522553557 O 0.0 **** 0.0
1618 H 30.351189148063497 34.86997896722579 24.643996304633287 H 0.0 **** 0.52
1619 H 30.690458395779814 36.32129265453734 24.378521245874154 H 0.0 **** 0.52
1620 M 30.87953864865473 35.47248429121778 24.29643611630812 M 0.0 **** -1.04
1621 O 34.338972671096954 34.15388995230102 3.7905691475332315 O 0.0 **** 0.0
1622 H 34.558344062465984 33.4266228629978 4.372966855504416 H 0.0 **** 0.52
1623 H 34.39107164226622 33.780799495627036 2.9106160336505953 H 0.0 **** 0.52
1624 M 34.37372429684234 34.01303057772164 3.752478742610782 M 0.0 **** -1.04
1625 O 39.090099183994596 39.165344473799536 19.15400857956557 O 0.0 **** 0.0
1626 H 39.400584793468 39.91137798177131 19.667098465892565 H 0.0 **** 0.52
1627 H 39.3656271541295 39.358986505347545 18.258009063375937 H 0.0 **** 0.52
1628 M 39.16511591637625 39.285634680339165 19.104991522958414 M 0.0 **** -1.04
1629 O 6.705831580233286 1.7192053720090437 30.912064702673458 O 0.0 **** 0.0
1630 H 5.847210890618387 1.4868565652480659 30.55849251268296 H 0.0 **** 0.52
1631 H 6.70057557647917 1.370705717203635 31.803551544749517 H 0.0 **** 0.52
1632 M 6.595245323578266 1.6448489102498662 30.98092436781698 M 0.0 **** -1.04
1633 O 28.316434767582567 3.925236188939697 8.960445328576656 O 0.0 **** 0.0
1634 H 27.49370448122335 4.372679409772912 9.158276831759109 H 0.0 **** 0.52
1635 H 28.83948185839341 4.0217149153538605 9.75627368234056 H 0.0 **** 0.52
1636 M 28.278071614192076 3.9948652456722504 9.087646219196536 M 0.0 **** -1.04
1637 O 6.577799121550899 10.625640232757329 17.252520681134364 O 0.0 **** 0.0
1638 H 7.153682108979095 11.380875623269771 17.133332733369308 H 0.0 **** 0.52
1639 H 6.793390457465328 10.294679273782595 18.124422791398654 H 0.0 **** 0.52
1640 M 6.679118075395181 10.679952970569571 17.348877718953318 M 0.0 **** -1.04
1641 O 26.12493371586561 29.41918410389686 43.85472143999756 O 0.0 **** 0.0
1642 H 26.919007691623253 28.971154008854334 43.563270584662575 H 0.0 **** 0.52
1643 H 25.980511240011452 30.102051728086348 43.19969193846132 H 0.0 **** 0.52
1644 M 26.20809747812387 29.449246089239416 43.73356004844765 M 0.0 **** -1.04
1645 O 16.555548969524107 3.224472046992034 17.418803699557625 O 0.0 **** 0.0
1646 H 16.702295397243038 4.098423116902829 17.780607989253838 H 0.0 **** 0.52
1647 H 16.05419200665618 2.7665131314838973 18.093446556405272 H 0.0 **** 0.52
1648 M 16.510154126814783 3.277724100094815 17.551481772096896 M 0.0 **** -1.04
1649 O 12.639349527582787 29.12736821630505 49.106149473208376 O 0.0 **** 0.0
1650 H 12.448286287775202 28.32830860321769 49.5972993175938 H 0.0 **** 0.52
1651 H 13.294574780520145 29.58301873262393 49.63463056780914 H 0.0 **** 0.52
1652 M 12.698768604780371 29.083407386503904 49.23667476996797 M 0.0 **** -1.04
1653 O 26.560821993909986 34.90737212521666 28.39645576596464 O 0.0 **** 0.0
1654 H 27.336750872457174 34.54595340335319 28.82487191968012 H 0.0 **** 0.52
1655 H 25.825786890482906 34.57787848275572 28.913549754973452 H 0.0 **** 0.52
1656 M 26.566056739529174 34.81892722338298 28.51749322806188 M 0.0 **** -1.04
1657 O 47.5086007177674 9.893208993226928 38.098414950779535 O 0.0 **** 0.0
1658 H 48.01950801916605 9.353647753377032 37.495028191747274 H 0.0 **** 0.52
1659 H 47.70052981802504 9.53263153947104 38.96407982626627 H 0.0 **** 0.52
1660 M 47.59857284027679 9.777980046326093 38.13199019968831 M 0.0 **** -1.04
1661 O 44.72899944143242 35.48922217188471 37.59830514574344 O 0.0 **** 0.0
1662 H 45.062660076188635 36.31662062310923 37.94516418941801 H 0.0 **** 0.52
1663 H 45.47814031522267 35.097808677733084 37.1490695995872 H 0.0 **** 0.52
1664 M 44.867611652089785 35.545033306385946 37.585199887318865 M 0.0 **** -1.04
1665 O 30.650728633585086 6.492827589658398 43.01157295835053 O 0.0 **** 0.0
1666 H 30.634893405502204 6.259957215802321 43.939877160597895 H 0.0 **** 0.52
1667 H 31.131495309819773 5.778667655795031 42.59316264139245 H 0.0 **** 0.52
1668 M 30.7102457300514 6.3715964432300725 43.076846221888346 M 0.0 **** -1.04
1669 O 11.0799242853277 40.20504548146499 43.84099913504432 O 0.0 **** 0.0
1670 H 10.180404918800358 40.29197237387574 44.15649221157048 H 0.0 **** 0.52
1671 H 11.465248241991205 39.52855892761642 44.39788490181625 H 0.0 **** 0.52
1672 M 11.014101046450973 40.12957416928334 43.95267556220043 M 0.0 **** -1.04
1673 O 38.6660862808693 17.864091095150126 21.441811360955636 O 0.0 **** 0.0
1674 H 37.72941737987749 17.67645839907353 21.381194410431032 H 0.0 **** 0.52
1675 H 38.72270035151966 18.81876661240647 21.40157897478716 H 0.0 **** 0.52
1676 M 38.55342800148135 17.962282068843187 21.42890130535705 M 0.0 **** -1.04
1677 O 20.28991702124958 31.720206445868456 37.193134813025765 O 0.0 **** 0.0
1678 H 20.07641935403374 32.12311135656443 38.03474905598052 H 0.0 **** 0.52
1679 H 20.911682883122094 31.0256400873456 37.41042281062585 H 0.0 **** 0.52
1680 M 20.342180764826995 31.682869678723524 37.328687526932335 M 0.0 **** -1.04
1681 O 37.650226733385544 42.56490670083042 30.239515627851684 O 0.0 **** 0.0
1682 H 37.22855127670594 43.39825861532634 30.44913983920543 H 0.0 **** 0.52
1683 H 36.93709274881012 41.92646373299547 30.247236283026794 H 0.0 **** 0.52
1684 M 37.5049570883879 42.5898569051266 30.267338085791792 M 0.0 **** -1.04
1685 O 46.70321968259217 37.88991654281703 19.22380542432655 O 0.0 **** 0.0
1686 H 46.89534939328411 38.140026341397956 20.12755292488474 H 0.0 **** 0.52
1687 H 47.56237687632987 37.805381343720335 18.81036683946977 H 0.0 **** 0.52
1688 M 46.83779751173497 37.91111264739512 19.286571081042034 M 0.0 **** -1.04
1689 O 29.368987246877253 32.01622974186184 19.50982410630799 O 0.0 **** 0.0
1690 H 29.36821840713213 31.957700142621874 18.55441686945521 H 0.0 **** 0.52
1691 H 28.539431538323356 32.44266633447045 19.724807409609454 H 0.0 **** 0.52
1692 M 29.262694669635806 32.063326879745006 19.415040464889387 M 0.0 **** -1.04
1693 O 43.65717514662577 19.675345551898786 0.01769768010564121 O 0.0 **** 0.0
1694 H 44.425204718727386 20.136167459385803 0.3553385764963295 H 0.0 **** 0.52
1695 H 43.93040049566635 18.759434331253118 -0.034107880465562346 H 0.0 **** 0.52
1696 M 43.79046857345174 19.617088472389753 0.05428787003503999 M 0.0 **** -1.04
1697 O 32.8063799149708 5.539854947904979 21.632832220987922 O 0.0 **** 0.0
1698 H 32.364952824801705 5.728074101217983 22.4610500922236 H 0.0 **** 0.52
1699 H 33.33230739142244 4.760614012860382 21.812868790021014 H 0.0 **** 0.52
1700 M 32.81719732866767 5.464196694581846 21.761902226965233 M 0.0 **** -1.04
1701 O 2.2718372314418076 15.824198978937622 32.46845166714239 O 0.0 **** 0.0
1702 H 2.742683459108328 15.907446880552882 33.297669536360765 H 0.0 **** 0.52
1703 H 1.4285047378594058 16.248049715666447 32.62773195044425 H 0.0 **** 0.52
1704 M 2.2241546179283915 15.889114087594407 32.59499230765607 M 0.0 **** -1.04
1705 O 48.62792330558087 22.874010227590528 36.42746258459093 O 0.0 **** 0.0
1706 H 48.07177379842952 22.810537371045573 37.20392805365098 H 0.0 **** 0.52
1707 H 49.236836753862114 23.585398998089836 36.625904638649665 H 0.0 **** 0.52
1708 M 48.63467741768706 22.956951767427988 36.55226274410628 M 0.0 **** -1.04
1709 O 30.20593352215033 36.28244461756074 27.886773543378347 O 0.0 **** 0.0
1710 H 30.33414089365482 37.22503928989308 27.78043841443802 H 0.0 **** 0.52
1711 H 29.7646444187789 36.19406106561355 28.731569724470567 H 0.0 **** 0.52
1712 M 30.165855298055572 36.391794803708244 27.981306473217092 M 0.0 **** -1.04
1713 O 13.094297971881758 37.26000564847955 9.521031944775771 O 0.0 **** 0.0
1714 H 13.998711827550224 37.55451259971357 9.413654590323699 H 0.0 **** 0.52
1715 H 12.67745650482469 37.45399261689057 8.681483649849989 H 0.0 **** 0.52
1716 M 13.156713925200641 37.322538840400746 9.399813597849954 M 0.0 **** -1.04
1717 O 33.010600655163216 42.50097150950443 13.482557305212794 O 0.0 **** 0.0
1718 H 33.608486723457276 42.131495202473396 12.832751757955194 H 0.0 **** 0.52
1719 H 33.22888884057184 43.43262158059545 13.507190863853069 H 0.0 **** 0.52
1720 M 33.11508097768426 42.57293652444385 13.402527918993286 M 0.0 **** -1.04
1721 O 19.529475462111233 7.983473277077188 49.11002929739877 O 0.0 **** 0.0
1722 H 20.39501538846366 8.29332316017252 49.37660500143952 H 0.0 **** 0.52
1723 H 18.918846064888115 8.475959579372216 49.65849805954286 H 0.0 **** 0.52
1724 M 19.56210742900173 8.086182403035572 49.21436479889144 M 0.0 **** -1.04
1725 O 26.622856465033873 23.694310729906533 44.93708865504615 O 0.0 **** 0.0
1726 H 26.839527518833442 23.30155703467426 44.091495805937264 H 0.0 **** 0.52
1727 H 26.797625514058172 23.002334663152936 45.57493904583281 H 0.0 **** 0.52
1728 M 26.672966176531457 23.55545210975457 44.910494436442704 M 0.0 **** -1.04
1729 O 35.86793455444993 21.380051304686745 7.201173754244024 O 0.0 **** 0.0
1730 H 35.39944019739851 20.74103485251741 7.738201600302368 H 0.0 **** 0.52
1731 H 35.18627893747158 21.79523457504053 6.672782353453535 H 0.0 **** 0.52
1732 M 35.72070149521113 21.35139802365327 7.2022789149587965 M 0.0 **** -1.04
1733 O 7.917889491973405 11.56231428531356 42.83460547333416 O 0.0 **** 0.0
1734 H 7.106865323079802 11.432879247303639 43.3262504450071 H 0.0 **** 0.52
1735 H 8.613308445481124 11.411114573010002 43.47473038717054 H 0.0 **** 0.52
1736 M 7.903090626373171 11.526389931451414 42.97948661656041 M 0.0 **** -1.04
1737 O 20.787674922695533 33.86140728507378 44.74997104426105 O 0.0 **** 0.0
1738 H 20.265444547782394 34.01007685447004 45.53826146817743 H 0.0 **** 0.52
1739 H 20.15302219398517 33.57920247652159 44.09133249799979 H 0.0 **** 0.52
1740 M 20.639579309469354 33.8443132700635 44.76656855961675 M 0.0 **** -1.04
1741 O 28.851038628524634 41.834548855510036 17.91885458289687 O 0.0 **** 0.0
1742 H 29.473174856895113 42.480054770834215 17.583450613779178 H 0.0 **** 0.52
1743 H 28.568162480207718 42.18925525992984 18.761703223811963 H 0.0 **** 0.52
1744 M 28.89446804152807 41.96258834517869 17.98381425731536 M 0.0 **** -1.04
1745 O 15.05448578081864 9.526957245036868 18.929077131869196 O 0.0 **** 0.0
1746 H 14.359972422643189 8.886119071299653 18.77674249290319 H 0.0 **** 0.52
1747 H 15.264772676696271 9.86449129355249 18.058399605920748 H 0.0 **** 0.52
1748 M 14.992498425707891 9.488130460263534 18.798118627836285 M 0.0 **** -1.04
1749 O 16.879348800061052 43.64028541773426 3.354269487617941 O 0.0 **** 0.0
1750 H 16.575558193174388 44.488829681144914 3.676625876025547 H 0.0 **** 0.52
1751 H 17.833355754202643 43.68747273624333 3.4164974643994412 H 0.0 **** 0.52
1752 M 16.96258474783434 43.75495040104242 3.4035016253149806 M 0.0 **** -1.04
1753 O 44.2797338112247 2.6428773837234423 19.75864486033475 O 0.0 **** 0.0
1754 H 45.168462915673445 2.3756514307564163 19.993123415881886 H 0.0 **** 0.52
1755 H 44.389709184924776 3.179499627540669 18.97367989532551 H 0.0 **** 0.52
1756 M 44.407580837891125 2.677363535973192 19.688176353549398 M 0.0 **** -1.04
1757 O 48.37914973534607 1.01586769494138 42.94426109062562 O 0.0 **** 0.0
1758 H 48.51487505915467 0.6175514505253749 43.804000366712906 H 0.0 **** 0.52
1759 H 47.461956444844816 0.8354440615497918 42.73827102665416 H 0.0 **** 0.52
1760 M 48.27911198381594 0.9417816676275464 43.027949139041404 M 0.0 **** -1.04
1761 O 25.40953413366443 45.6935647992998 1.0296968205916883 O 0.0 **** 0.0
1762 H 25.52123424054831 46.389736547507525 0.38232048851022427 H 0.0 **** 0.52
1763 H 24.786930085043398 45.08855932828833 0.626507780118601 H 0.0 **** 0.52
1764 M 25.34413248556607 45.70523495959707 0.8952115046288611 M 0.0 **** -1.04
1765 O 38.29738368816288 40.97802971709418 7.667426633113556 O 0.0 **** 0.0
1766 H 38.30982144420143 40.84959752929861 6.71896509657982 H 0.0 **** 0.52
1767 H 38.1536903810634 41.91759990555311 7.78051446236247 H 0.0 **** 0.52
1768 M 38.280581116548994 41.08186531272962 7.560488316336091 M 0.0 **** -1.04
1769 O 43.682360360924775 11.525075889223125 41.16751131491028 O 0.0 **** 0.0
1770 H 42.78995203322041 11.870876294300729 41.151474063336984 H 0.0 **** 0.52
1771 H 43.69607233119902 10.930955074349342 41.917885394323925 H 0.0 **** 0.52
1772 M 43.569876389127174 11.493287485710525 41.26151580353053 M 0.0 **** -1.04
1773 O 18.70262635764155 22.595785009523226 39.351701644782715 O 0.0 **** 0.0
1774 H 18.291509818658724 22.93191830780772 38.555318206545884 H 0.0 **** 0.52
1775 H 19.36592556134758 21.980964737132815 39.03823784661383 H 0.0 **** 0.52
1776 M 18.734908842608732 22.56010916109196 39.209626966729076 M 0.0 **** -1.04
1777 O 21.696957784505685 38.37422760298289 35.73982601050873 O 0.0 **** 0.0
1778 H 22.517944128214264 38.12998417639001 35.312560732164364 H 0.0 **** 0.52
1779 H 21.95043165479434 38.60202398908219 36.63430217867616 H 0.0 **** 0.52
1780 M 21.83450238219513 38.37212292668226 35.79963485330899 M 0.0 **** -1.04
1781 O 39.7406301279488 45.00480476960522 34.772580976109424 O 0.0 **** 0.0
1782 H 38.85416685649079 45.349374011888536 34.88067383682156 H 0.0 **** 0.52
1783 H 39.712312272628175 44.524936450374625 33.94484109425614 H 0.0 **** 0.52
1784 M 39.6235271261821 44.9874850460175 34.680457482791674 M 0.0 **** -1.04
1785 O 42.07297699740869 44.678794814996735 25.487477636474477 O 0.0 **** 0.0
1786 H 42.94196043097055 44.30694585163373 25.638557973823882 H 0.0 **** 0.52
1787 H 41.50947247223489 43.9194074095183 25.339081314410578 H 0.0 **** 0.52
1788 M 42.11208195535201 44.53398274715132 25.487821269393578 M 0.0 **** -1.04
1789 O 42.28563954307192 20.51718170042358 19.926317665224612 O 0.0 **** 0.0
1790 H 42.48232405609471 19.610844638028137 20.16316508398719 H 0.0 **** 0.52
1791 H 42.77169846719288 21.04227115340062 20.562130236514896 H 0.0 **** 0.52
1792 M 42.37303905250238 20.468377586178768 20.038029771896618 M 0.0 **** -1.04
1793 O 45.87991132568492 22.62666252128024 11.611335508969244 O 0.0 **** 0.0
1794 H 46.57631242720241 22.545091013966797 10.959721296954172 H 0.0 **** 0.52
1795 H 45.38854777973009 21.808205831689982 11.541193655416503 H 0.0 **** 0.52
1796 M 45.90615914967626 22.511447672468336 11.518941638442305 M 0.0 **** -1.04
1797 O 5.075229182523344 4.3311011000349255 6.774698577963398 O 0.0 **** 0.0
1798 H 5.763520253065629 3.882959668943264 7.266280433288529 H 0.0 **** 0.52
1799 H 4.289427287834144 4.224947871150109 7.310865901183689 H 0.0 **** 0.52
1800 M 5.062747177575346 4.260144545176999 6.906263000559985 M 0.0 **** -1.04
1801 O 21.702665665828707 12.353294445858838 43.47998164738448 O 0.0 **** 0.0
1802 H 22.24620944694395 12.83781021052573 44.10129742541601 H 0.0 **** 0.52
1803 H 22.127706627713703 12.488422064665002 42.63304026632592 H 0.0 **** 0.52
1804 M 21.82665677069874 12.432616491501841 43.45109878793229 M 0.0 **** -1.04
1805 O 33.05023419423185 9.58146145529927 11.035542353597254 O 0.0 **** 0.0
1806 H 33.607038669160104 9.090176978505255 11.639559153686363 H 0.0 **** 0.52
1807 H 32.37204517415774 9.964487607275723 11.591941603767317 H 0.0 **** 0.52
1808 M 33.03469506153198 9.567602907826306 11.18408987852066 M 0.0 **** -1.04
1809 O 23.523077055100323 47.80529643402922 41.128238363084236 O 0.0 **** 0.0
1810 H 24.091515191135915 47.75285307977215 40.35989109215852 H 0.0 **** 0.52
1811 H 22.875417934619065 48.47298349678259 40.902491437837014 H 0.0 **** 0.52
1812 M 23.512936190366105 47.884055721867824 41.00098214445188 M 0.0 **** -1.04
1813 O 28.07420126981961 2.243074085870745 23.75547491436543 O 0.0 **** 0.0
1814 H 27.450503503804114 2.5984333438472618 23.12226903525514 H 0.0 **** 0.52
1815 H 28.545902714956426 1.564337149876394 23.27273039825674 H 0.0 **** 0.52
1816 M 28.05474348752739 2.2016780961411584 23.61261937802336 M 0.0 **** -1.04
1817 O 10.143810816281821 9.893667083587271 48.87700385123005 O 0.0 **** 0.0
1818 H 10.866008044044875 10.253582563417988 48.362105846558066 H 0.0 **** 0.52
1819 H 10.520944963084162 9.737212968459025 49.7427527417709 H 0.0 **** 0.52
1820 M 10.28453831733276 9.919713305151602 48.921917258940546 M 0.0 **** -1.04
1821 O 18.247883625471488 37.81834819158374 44.944661342608974 O 0.0 **** 0.0
1822 H 18.974394287850895 38.43822335352019 44.880119598735206 H 0.0 **** 0.52
1823 H 17.70630254641689 38.156749108530555 45.6576851322588 H 0.0 **** 0.52
1824 M 18.27155715870908 37.9410194203369 45.027675433709305 M 0.0 **** -1.04
1825 O 5.297959661513586 12.953116498513182 27.941882635238287 O 0.0 **** 0.0
1826 H 5.8717321397366575 12.521829215555456 27.308631637493193 H 0.0 **** 0.52
1827 H 4.443789239247278 12.98223502991447 27.51086774888296 H 0.0 **** 0.52
1828 M 5.262065658447403 12.901633816371636 27.80564340100166 M 0.0 **** -1.04
1829 O 1.3652708138096443 32.706104602008374 33.23042015614827 O 0.0 **** 0.0
1830 H 1.9150594986141627 32.29617183990745 32.56264991405723 H 0.0 **** 0.52
1831 H 1.432770505513922 33.64447174907495 33.053954004997316 H 0.0 **** 0.52
1832 M 1.444291863858794 32.773750899603826 33.12234771997345 M 0.0 **** -1.04
1833 O 30.329354124789564 17.051930953874823 33.24777577514794 O 0.0 **** 0.0
1834 H 31.111432795330867 16.698449060421133 33.67160580120429 H 0.0 **** 0.52
1835 H 29.989456384297362 16.32467866503574 32.726430091583964 H 0.0 **** 0.52
1836 M 30.38595903625772 16.913583468170575 33.23529249388863 M 0.0 **** -1.04
1837 O 34.315055075423615 18.548097794367816 32.643963289261094 O 0.0 **** 0.0
1838 H 33.98874405849547 19.303401755668446 33.13311148186202 H 0.0 **** 0.52
1839 H 33.87319023583374 18.601855502624865 31.79655871086065 H 0.0 **** 0.52
1840 M 34.216719077284225 18.651668353380952 32.59810181168313 M 0.0 **** -1.04
1841 O 49.82686151656163 23.014120640683537 0.29341392919277387 O 0.0 **** 0.0
1842 H 49.464716411173086 23.46595044691722 -0.46877305244066036 H 0.0 **** 0.52
1843 H 50.679466725687696 22.693307969242227 -0.0004789849822799397 H 0.0 **** 0.52
1844 M 49.889646844033884 23.030892847140812 0.15822209227668965 M 0.0 **** -1.04
1845 O 33.052692249835964 20.219667547225058 15.562032652271759 O 0.0 **** 0.0
1846 H 32.18976845215226 20.010987874695065 15.204200629233274 H 0.0 **** 0.52
1847 H 32.97420361484839 20.038870438683006 16.49871874818144 H 0.0 **** 0.52
1848 M 32.9321801907485 20.169809594557744 15.636133088797601 M 0.0 **** -1.04
1849 O 30.200991316364963 12.533906054180136 39.334294348666006 O 0.0 **** 0.0
1850 H 30.760961647891815 11.87930510886764 38.91697150859045 H 0.0 **** 0.52
1851 H 30.121046675854355 13.231309215091862 38.683552039601196 H 0.0 **** 0.52
1852 M 30.262440799537845 12.539384845872611 39.19756876664355 M 0.0 **** -1.04
1853 O 45.81739196827714 16.9254879233971 9.727808644718408 O 0.0 **** 0.0
1854 H 46.02415504868492 16.179290650987838 10.29054075260862 H 0.0 **** 0.52
1855 H 45.19025642330745 16.580346489050555 9.09235042198533 H 0.0 **** 0.52
1856 M 45.76357917920095 16.78578318263901 9.718499751413532 M 0.0 **** -1.04
1857 O 5.019723098227857 38.30269337290344 38.382465261446555 O 0.0 **** 0.0
1858 H 4.12202469903994 37.97066191689042 38.39352386175838 H 0.0 **** 0.52
1859 H 5.316770122044324 38.161499441158846 37.4835460333922 H 0.0 **** 0.52
1860 M 4.942832584803648 38.24211503945811 38.26880795464959 M 0.0 **** -1.04
1861 O 27.23222188426406 17.1866290210572 24.328156527043035 O 0.0 **** 0.0
1862 H 27.324308699539326 17.28100037330526 23.380082654849467 H 0.0 **** 0.52
1863 H 27.954803283217014 17.69850755050541 24.691593050588637 H 0.0 **** 0.52
1864 M 27.336510284037207 17.26423690729871 24.253315165618506 M 0.0 **** -1.04
1865 O 20.798012014101783 21.999147795131663 25.74871006761699 O 0.0 **** 0.0
1866 H 20.296143779227965 22.802069296223607 25.608444252030463 H 0.0 **** 0.52
1867 H 20.590924081082292 21.451337851932166 24.991579151259888 H 0.0 **** 0.52
1868 M 20.707256104860665 22.03180550682177 25.63383184962075 M 0.0 **** -1.04
1869 O 16.44137907645738 27.387608904565855 29.774865558493957 O 0.0 **** 0.0
1870 H 16.505368942031613 28.058007075471316 29.094645406925338 H 0.0 **** 0.52
1871 H 16.214682441162605 26.586821859698855 29.302026771529697 H 0.0 **** 0.52
1872 M 16.420550215276954 27.37091704270696 29.62726021959797 M 0.0 **** -1.04
1873 O 41.88049683443513 15.683327206207395 26.97186397043953 O 0.0 **** 0.0
1874 H 40.929023147453215 15.714747742704041 26.87216764560577 H 0.0 **** 0.52
1875 H 42.02349245170731 15.123229903101858 27.73480074677221 H 0.0 **** 0.52
1876 M 41.77700153928829 15.615649654848198 27.056767750746985 M 0.0 **** -1.04
1877 O 37.31759785012535 29.46939796001456 39.06028747043546 O 0.0 **** 0.0
1878 H 37.94744145168193 29.834770665973423 39.68159975688984 H 0.0 **** 0.52
1879 H 37.82447125216693 29.325946708361286 38.26108248741325 H 0.0 **** 0.52
1880 M 37.463111699055965 29.497806644381598 39.03751592048992 M 0.0 **** -1.04
1881 O 10.456646273701907 45.11423808052736 23.414657010054604 O 0.0 **** 0.0
1882 H 10.614199762560448 45.91761291461384 23.910636218924253 H 0.0 **** 0.52
1883 H 10.434647846470448 44.42364328667716 24.077094609878394 H 0.0 **** 0.52
1884 M 10.473999581691269 45.128675684173004 23.56294886613509 M 0.0 **** -1.04
1885 O 15.187555029877164 0.8367449195038645 26.163050177976547 O 0.0 **** 0.0
1886 H 15.782079370017527 0.09246936831148389 26.06912360995565 H 0.0 **** 0.52
1887 H 14.705979755621152 0.6587602950191211 26.970908765605927 H 0.0 **** 0.52
1888 M 15.202013834114094 0.7186845257929946 26.254443091825923 M 0.0 **** -1.04
1889 O 35.72134150455531 5.1512722567910885 25.990505966972147 O 0.0 **** 0.0
1890 H 34.94984046063765 4.919727570173144 25.473397379057946 H 0.0 **** 0.52
1891 H 35.511218612749474 4.861145770796291 26.87814526566961 H 0.0 **** 0.52
1892 M 35.595681654075136 5.084492628302506 26.037938534067404 M 0.0 **** -1.04
1893 O 1.767284628141553 45.54560338216587 28.42623984918523 O 0.0 **** 0.0
1894 H 1.2823450758274362 46.3500331182744 28.61050938906306 H 0.0 **** 0.52
1895 H 1.0899822195286788 44.88769879353512 28.269237904108607 H 0.0 **** 0.52
1896 M 1.6185035558012615 45.564360734727856 28.429730853788527 M 0.0 **** -1.04
1897 O 9.518233828274866 18.014290755762833 43.41893863675583 O 0.0 **** 0.0
1898 H 9.050284323180428 18.847585274750514 43.36534876857695 H 0.0 **** 0.52
1899 H 9.251389956974165 17.642843377818057 44.25980161400045 H 0.0 **** 0.52
1900 M 9.424170602240281 18.07341294837458 43.51971969347165 M 0.0 **** -1.04
1901 O 17.84343285979981 39.77906509948358 12.1938779876154 O 0.0 **** 0.0
1902 H 18.702750974439205 39.47218584169411 12.483058961793219 H 0.0 **** 0.52
1903 H 18.036165382387864 40.466753177278115 11.556563884348922 H 0.0 **** 0.52
1904 M 17.978108567546034 39.82781400406486 12.149312175929923 M 0.0 **** -1.04
1905 O 27.02174161266312 4.671512163043757 44.85528429231081 O 0.0 **** 0.0
1906 H 26.348518983559043 5.069791652302125 45.40698352904349 H 0.0 **** 0.52
1907 H 27.109612520789415 3.779177417781687 45.19031658743215 H 0.0 **** 0.52
1908 M 26.946809683645988 4.60826723809923 44.968796851441994 M 0.0 **** -1.04
1909 O 48.98509779551913 15.681747630761208 12.552089933423877 O 0.0 **** 0.0
1910 H 48.14190362396842 15.504675905052537 12.135077620612483 H 0.0 **** 0.52
1911 H 49.624029394107396 15.224876469389912 12.00504091238962 H 0.0 **** 0.52
1912 M 48.95894943093694 15.60059488284503 12.42867780036425 M 0.0 **** -1.04
1913 O 39.83579718833671 2.286599584687785 14.239463463821775 O 0.0 **** 0.0
1914 H 39.26898845913317 1.5160284249313705 14.273764667376039 H 0.0 **** 0.52
1915 H 40.3469465841533 2.173057570954896 13.438174294980236 H 0.0 **** 0.52
1916 M 39.82867219898294 2.1734215207600087 14.141279027095436 M 0.0 **** -1.04
1917 O 24.58159878702491 18.150987904476878 33.741968694693675 O 0.0 **** 0.0
1918 H 24.744245396289905 18.160642513685787 34.68519787718777 H 0.0 **** 0.52
1919 H 24.761775345506763 17.249135017196338 33.476586513697576 H 0.0 **** 0.52
1920 M 24.62548494019578 18.036775456812023 33.82874237134311 M 0.0 **** -1.04
1921 O 40.80624580460122 45.319791803066416 40.657664753080994 O 0.0 **** 0.0
1922 H 41.210069506840696 44.64000303486636 40.118179626182496 H 0.0 **** 0.52
1923 H 40.99275077257143 46.13629256828094 40.19423213995202 H 0.0 **** 0.52
1924 M 40.881815214504726 45.337292215007096 40.52927891878553 M 0.0 **** -1.04
1925 O 1.7926819111365242 13.070086417412874 41.252642628428646 O 0.0 **** 0.0
1926 H 1.374207147475116 12.94714075006295 40.400591491367294 H 0.0 **** 0.52
1927 H 2.694664827122814 13.313365371234504 41.04414690815247 H 0.0 **** 0.52
1928 M 1.8545770216273607 13.085490162212537 41.116879614785475 M 0.0 **** -1.04
1929 O 1.0045314254674294 44.646412081237834 8.861165648705317 O 0.0 **** 0.0
1930 H 1.4481961151301634 45.05175213499118 9.606208033654399 H 0.0 **** 0.52
1931 H 1.5979208064560677 43.950784097089716 8.577936566206937 H 0.0 **** 0.52
1932 M 1.137287304915283 44.60925118037879 8.92028333476769 M 0.0 **** -1.04
1933 O 27.33396693384201 36.40397100916049 7.674914555191236 O 0.0 **** 0.0
1934 H 26.80608791463404 36.801039547773186 8.367669867684924 H 0.0 **** 0.52
1935 H 26.731686528210325 36.31297385413508 6.936533595130896 H 0.0 **** 0.52
1936 M 27.189292279362572 36.44315172367065 7.669073826836922 M 0.0 **** -1.04
1937 O 49.33117362027827 10.506219161770586 30.093034047446714 O 0.0 **** 0.0
1938 H 49.9015323799423 10.007203267321017 30.677757538830193 H 0.0 **** 0.52
1939 H 49.751932294760486 10.442789662268666 29.23561477181117 H 0.0 **** 0.52
1940 M 49.4580492448967 10.434219889835646 30.058125294482217 M 0.0 **** -1.04
1941 O 17.795421520771235 31.000477169319915 19.99403664743147 O 0.0 **** 0.0
1942 H 18.355993614879967 31.44790473906627 19.360161687674605 H 0.0 **** 0.52
1943 H 17.625491785795834 30.144089605128265 19.60166950129735 H 0.0 **** 0.52
1944 M 17.84542875138287 30.948125310866804 19.862665154050802 M 0.0 **** -1.04
1945 O 7.4417627702953695 24.162762116437687 34.52849924141341 O 0.0 **** 0.0
1946 H 7.982023607584061 23.921647170679307 35.28096893287498 H 0.0 **** 0.52
1947 H 6.897967282096069 24.884188691052508 34.84481824809147 H 0.0 **** 0.52
1948 M 7.441310762805145 24.22424826679279 34.66531721730006 M 0.0 **** -1.04
1949 O 42.88972405741262 13.68135853163162 34.41106325733795 O 0.0 **** 0.0
1950 H 43.74473022440388 13.293332928668448 34.597153134133 H 0.0 **** 0.52
1951 H 42.992614773261664 14.087306804877407 33.550338501652696 H 0.0 **** 0.52
1952 M 43.012346358045654 13.683652766204405 34.32470191992254 M 0.0 **** -1.04
1953 O 27.64956250821436 47.11500827350067 15.178817078685697 O 0.0 **** 0.0
1954 H 27.736845783449255 46.46573513623979 15.87670988735303 H 0.0 **** 0.52
1955 H 26.868281631117227 46.84501428116559 14.696186371073566 H 0.0 **** 0.52
1956 M 27.560722233703558 46.99733118390177 15.206373413789905 M 0.0 **** -1.04
1957 O 18.52867806210393 36.33583038753182 16.305504558991117 O 0.0 **** 0.0
1958 H 18.600376574511692 37.28502227586739 16.40611994985234 H 0.0 **** 0.52
1959 H 18.18843584367929 36.030377397740914 17.146433322715467 H 0.0 **** 0.52
1960 M 18.49430079503418 36.418237094731246 16.426033359243924 M 0.0 **** -1.04
1961 O 0.965903415884739 25.23096386387592 24.97893872642173 O 0.0 **** 0.0
1962 H 1.5785708471777866 25.584486715560313 25.6238325778413 H 0.0 **** 0.52
1963 H 0.5028778132084781 24.53444090472445 25.444440400327665 H 0.0 **** 0.52
1964 M 0.9850590544205673 25.187055440508093 25.121083848433145 M 0.0 **** -1.04
1965 O 15.620315098244006 20.046208972900466 37.03629377888397 O 0.0 **** 0.0
1966 H 16.1224310893122 20.84726490095797 37.18602097764131 H 0.0 **** 0.52
1967 H 15.263429140226094 20.14805956267312 36.15397334459902 H 0.0 **** 0.52
1968 M 15.638906083928916 20.161792434783255 36.94251297998872 M 0.0 **** -1.04
1969 O 9.743107964811093 43.11222923201428 49.75706171934418 O 0.0 **** 0.0
1970 H 9.482312775276583 42.4580752641688 49.108758854227865 H 0.0 **** 0.52
1971 H 8.942966824566353 43.60681671463804 49.93422393647038 H 0.0 **** 0.52
1972 M 9.607294077275537 43.09180292458319 49.696749994189005 M 0.0 **** -1.04
1973 O 26.982235113624416 19.662541384818244 20.437294258028523 O 0.0 **** 0.0
1974 H 26.7558212438363 20.312846673329002 21.102177291547118 H 0.0 **** 0.52
1975 H 27.908559515356547 19.81922571912302 20.253988345441208 H 0.0 **** 0.52
1976 M 27.07183238151128 19.765846129099845 20.498942056230337 M 0.0 **** -1.04
1977 O 33.88136503422999 27.761966164105 2.941401193593916 O 0.0 **** 0.0
1978 H 34.60515682786325 27.486079077459717 2.379049458123192 H 0.0 **** 0.52
1979 H 33.89005116079301 27.137974576931033 3.667202814672875 H 0.0 **** 0.52
1980 M 33.97513124462959 27.64676993819337 2.9623250279461315 M 0.0 **** -1.04
1981 O 9.059435045387554 19.504759891596574 49.797025307662516 O 0.0 **** 0.0
1982 H 9.241236469499635 18.594238271589536 50.02967884112041 H 0.0 **** 0.52
1983 H 9.519752359838924 19.637207636010093 48.96829483577439 H 0.0 **** 0.52
1984 M 9.141634241671243 19.405156056368963 49.72071951412583 M 0.0 **** -1.04
1985 O 5.558440953966041 15.593733031042674 14.658256674303015 O 0.0 **** 0.0
1986 H 5.385414362858818 14.727252273797376 14.29015181977368 H 0.0 **** 0.52
1987 H 5.670901519088304 16.160567036681925 13.895182736876238 H 0.0 **** 0.52
1988 M 5.5506879690152005 15.555374795885854 14.513450893126912 M 0.0 **** -1.04
1989 O 22.787738993631557 2.6012240477967037 3.40439115157443 O 0.0 **** 0.0
1990 H 23.64070455532108 2.473948654026053 3.819698459742895 H 0.0 **** 0.52
1991 H 22.969861427110548 3.1590746043579165 2.6481759066990236 H 0.0 **** 0.52
1992 M 22.920243301097145 2.6563427247297806 3.36075107464724 M 0.0 **** -1.04
1993 O 8.630847392938804 43.113503917523865 5.722197375954224 O 0.0 **** 0.0
1994 H 9.106053978142825 42.709666526832834 6.448367339392874 H 0.0 **** 0.52
1995 H 9.286895992082357 43.21410228710576 5.03248157311284 H 0.0 **** 0.52
1996 M 8.775662289964309 43.074685732294476 5.726864101681187 M 0.0 **** -1.04
1997 O 30.375172698672507 43.96754132447225 5.072923280070013 O 0.0 **** 0.0
1998 H 29.870525621831526 44.559543564683736 4.515165080497825 H 0.0 **** 0.52
1999 H 30.487706680041267 44.44811937505863 5.89305010313122 H 0.0 **** 0.52
2000 M 30.32497724761901 44.10484426564646 5.106509397253104 M 0.0 **** -1.04
2001 O 36.8569386552617 24.331749121422774 48.140676412882186 O 0.0 **** 0.0
2002 H 37.204240440169244 23.861962452899316 48.89890506349053 H 0.0 **** 0.52
2003 H 36.832338849593704 23.676722646125107 47.44313482674922 H 0.0 **** 0.52
2004 M 36.898248108564545 24.187758575806985 48.148445296140416 M 0.0 **** -1.04
2005 O 37.76852418934134 27.82300995354999 28.596287606638235 O 0.0 **** 0.0
2006 H 38.69145641991696 28.06297896506618 28.513583306779093 H 0.0 **** 0.52
2007 H 37.524406702898354 28.108089866123336 29.476835068041908 H 0.0 **** 0.52
2008 M 37.85542086952899 27.890222452997243 28.69842175373132 M 0.0 **** -1.04
2009 O 46.83246124597407 38.39369952957505 1.7823870727167588 O 0.0 **** 0.0
2010 H 46.500500090965964 38.3884840448739 0.8846109008827128 H 0.0 **** 0.52
2011 H 46.18761204267421 38.902588601393745 2.273743886736902 H 0.0 **** 0.52
2012 M 46.707417060888076 38.458176293331185 1.7303603993108112 M 0.0 **** -1.04
2013 O 43.84264264467853 26.226663909067394 2.399125711279877 O 0.0 **** 0.0
2014 H 42.96333498059859 26.518838309940225 2.639292693190085 H 0.0 **** 0.52
2015 H 44.16068670942844 25.761541817739595 3.172907341577588 H 0.0 **** 0.52
2016 M 43.770793781733545 26.204524385863774 2.5289239075378664 M 0.0 **** -1.04
2017 O 38.16937886908148 14.813784088027933 38.69592748212399 O 0.0 **** 0.0
2018 H 39.07016021709582 14.952453016777762 38.988488812695685 H 0.0 **** 0.52
2019 H 37.893836996936926 15.664975096546305 38.35566197640439 H 0.0 **** 0.52
2020 M 38.249417015857446 14.940498951806475 38.68982082876422 M 0.0 **** -1.04
2021 O 26.481847426505592 25.910756636901297 32.23062344793972 O 0.0 **** 0.0
2022 H 26.277410003801037 24.981755598909245 32.12389598409989 H 0.0 **** 0.52
2023 H 25.885813945093034 26.21033135309557 32.91708361763815 H 0.0 **** 0.52
2024 M 26.379377473953575 25.830182120879726 32.3048359924917 M 0.0 **** -1.04
2025 O 47.4077528948979 37.813514816798715 43.47302678159381 O 0.0 **** 0.0
2026 H 46.569582817409255 37.48263906398611 43.795859875138866 H 0.0 **** 0.52
2027 H 47.23476208080648 38.72806986466556 43.24966113909308 H 0.0 **** 0.52
2028 M 47.27831224413056 37.88823287994696 43.48576028489374 M 0.0 **** -1.04
2029 O 49.64369389188949 27.68415041826171 47.9521944359687 O 0.0 **** 0.0
2030 H 49.189972420198735 28.388660383316545 47.48955896297234 H 0.0 **** 0.52
2031 H 50.387204336361165 27.467496354117525 47.389626816443986 H 0.0 **** 0.52
2032 M 49.6807905448686 27.746602690081772 47.82095540332875 M 0.0 **** -1.04
2033 O 17.50781844930151 34.014918522789536 23.42882439740606 O 0.0 **** 0.0
2034 H 17.53287568482807 34.23156751838921 22.49680327793808 H 0.0 **** 0.52
2035 H 18.31364022464065 34.389931423077726 23.78413323248427 H 0.0 **** 0.52
2036 M 17.61418139137298 34.09065921590318 23.354997938100727 M 0.0 **** -1.04
2037 O 13.901063559487007 31.68569808632216 14.357714576854198 O 0.0 **** 0.0
2038 H 14.169363177585888 31.792249182530586 13.445086371260873 H 0.0 **** 0.52
2039 H 12.944511372986268 31.708414034688452 14.33086415936782 H 0.0 **** 0.52
2040 M 13.812958393028051 31.702246240674228 14.237449986314118 M 0.0 **** -1.04
2041 O 30.279936870663523 26.40720453015493 24.469798981414684 O 0.0 **** 0.0
2042 H 29.74226667534625 26.06808647386918 23.75416007126907 H 0.0 **** 0.52
2043 H 30.542676823287554 25.629408993932632 24.96196771675322 H 0.0 **** 0.52
2044 M 30.24474273536881 26.264225565092723 24.44119176035784 M 0.0 **** -1.04
2045 O 1.0447459714040122 32.88701041641718 0.7636609819934321 O 0.0 **** 0.0
2046 H 1.6858685483421993 32.959886403823965 1.4706830295691873 H 0.0 **** 0.52
2047 H 1.461557437090903 32.314326949780146 0.11982053354513766 H 0.0 **** 0.52
2048 M 1.180174353042716 32.82302824741337 0.7717488805030612 M 0.0 **** -1.04
2049 O 23.53710161054414 46.16610388311796 2.910813445548183 O 0.0 **** 0.0
2050 H 24.29936559835063 46.13182550137893 2.3328790370938535 H 0.0 **** 0.52
2051 H 22.869496975030287 45.65054731173502 2.4583380549819864 H 0.0 **** 0.52
2052 M 23.54921937864711 46.095717767549736 2.7789075661287517 M 0.0 **** -1.04
2053 O 22.74742683308486 16.442415767138073 28.820252411168248 O 0.0 **** 0.0
2054 H 22.415420271157075 15.814849595622514 29.46224898533874 H 0.0 **** 0.52
2055 H 23.54468921666832 16.792954698872933 29.217397047669177 H 0.0 **** 0.52
2056 M 22.8069860810207 16.406953479352584 28.953276092230485 M 0.0 **** -1.04
2057 O 14.671519398212622 24.23610409229896 35.63440332400798 O 0.0 **** 0.0
2058 H 15.024574358857244 25.089161424311882 35.887139398702686 H 0.0 **** 0.52
2059 H 13.751057733785668 24.40688408232688 35.43487194972991 H 0.0 **** 0.52
2060 M 14.598883918955211 24.36716802771268 35.64121442163875 M 0.0 **** -1.04
2061 O 23.366322910447366 28.94076073741026 43.606972588978515 O 0.0 **** 0.0
2062 H 24.252470941474222 29.27985356102462 43.48053652210342 H 0.0 **** 0.52
2063 H 22.80846992335807 29.718566362609423 43.600054824133124 H 0.0 **** 0.52
2064 M 23.408348135854215 29.083737412716566 43.58990175476139 M 0.0 **** -1.04
2065 O 7.046306533159327 16.836458957455815 27.500736240086404 O 0.0 **** 0.0
2066 H 7.155933077984332 16.10220290139789 28.10495309426323 H 0.0 **** 0.52
2067 H 7.361866317020305 17.597470492346478 27.988087492639735 H 0.0 **** 0.52
2068 M 7.100735677369138 16.83988380736486 27.640471090530724 M 0.0 **** -1.04
2069 O 31.15495797679392 1.2679762971096644 24.840041436521034 O 0.0 **** 0.0
2070 H 30.975872694318785 1.200302650548077 23.90218375072486 H 0.0 **** 0.52
2071 H 30.996156996947867 2.18851756869878 25.04887946795961 H 0.0 **** 0.52
2072 M 31.11170417845342 1.377154074942454 24.746717528075152 M 0.0 **** -1.04
2073 O 11.262771819507051 20.33527980890051 37.51058550287485 O 0.0 **** 0.0
2074 H 10.312388334633646 20.23085772505317 37.556369024915654 H 0.0 **** 0.52
2075 H 11.446603467417397 21.10078009967799 38.05505309677622 H 0.0 **** 0.52
2076 M 11.164643871431224 20.419905534054124 37.5861454146644 M 0.0 **** -1.04
2077 O 7.573949901073896 18.85823740418461 11.019899120668537 O 0.0 **** 0.0
2078 H 6.89805781131125 19.10522457090254 10.38871322464925 H 0.0 **** 0.52
2079 H 7.43832267060235 19.44940615625187 11.760407618223834 H 0.0 **** 0.52
2080 M 7.470065204133467 18.965531714979214 11.033893761274852 M 0.0 **** -1.04
2081 O 44.35999355769124 43.3646307527317 25.41216801993332 O 0.0 **** 0.0
2082 H 43.974914781670336 42.54925025237662 25.733255390994383 H 0.0 **** 0.52
2083 H 44.984147290862055 43.61921076702663 26.091763846126714 H 0.0 **** 0.52
2084 M 44.39059862003009 43.29284135025838 25.54026776265655 M 0.0 **** -1.04
2085 O 32.6911941168424 12.472083170657124 24.09814599286304 O 0.0 **** 0.0
2086 H 32.38117222113843 11.59633216157296 24.328742725531583 H 0.0 **** 0.52
2087 H 32.22863663408668 12.684702311476284 23.287552564327953 H 0.0 **** 0.52
2088 M 32.59229419934842 12.387193821587639 24.023899132395897 M 0.0 **** -1.04
2089 O 16.075271847818676 48.118503684942844 28.85089658000254 O 0.0 **** 0.0
2090 H 16.24695797792733 47.17888568362777 28.913114870022767 H 0.0 **** 0.52
2091 H 16.819166007009223 48.528150786186664 29.292529799887326 H 0.0 **** 0.52
2092 M 16.192477630431092 48.05065996504543 28.915396082959496 M 0.0 **** -1.04
2093 O 23.940064171471988 22.416273446521416 5.61451898279164 O 0.0 **** 0.0
2094 H 24.668515300260935 21.93012635031593 6.000847604339986 H 0.0 **** 0.52
2095 H 23.375382517419922 21.74218969871913 5.236398977386966 H 0.0 **** 0.52
2096 M 23.96102941455382 22.267749372136336 5.615570554751799 M 0.0 **** -1.04
2097 O 2.380416121848917 41.462381256710295 40.6622933691618 O 0.0 **** 0.0
2098 H 1.9954623260961455 42.28516502884284 40.964064039492335 H 0.0 **** 0.52
2099 H 2.6466820511733644 41.6387160033996 39.75994265531441 H 0.0 **** 0.52
2100 M 2.3652224530499097 41.59028145502387 40.58541141773775 M 0.0 **** -1.04
2101 O 18.13051518964603 37.71232769432727 26.110455154463796 O 0.0 **** 0.0
2102 H 17.631140037493168 38.2502762324969 25.49607362606768 H 0.0 **** 0.52
2103 H 18.118220449349902 36.835536701829774 25.726637306232107 H 0.0 **** 0.52
2104 M 18.065015175519513 37.668951353437954 25.98267300455436 M 0.0 **** -1.04
2105 O 32.50450699590707 18.287964631976564 30.536779966068337 O 0.0 **** 0.0
2106 H 32.02953150022765 17.480166186173435 30.73194186960037 H 0.0 **** 0.52
2107 H 32.67521231038403 18.24465822775281 29.595922842079972 H 0.0 **** 0.52
2108 M 32.465556613788245 18.17901210354531 30.44132192193264 M 0.0 **** -1.04
2109 O 11.678579944844898 8.74188253737276 6.8399984670300995 O 0.0 **** 0.0
2110 H 10.739142069354173 8.787226347023335 7.017840546125107 H 0.0 **** 0.52
2111 H 12.079768715465661 9.264625203375715 7.5342721472837155 H 0.0 **** 0.52
2112 M 11.609677183309756 8.814605008661104 6.951640615775759 M 0.0 **** -1.04
2113 O 32.68466471660753 19.95744896358869 25.979329360580515 O 0.0 **** 0.0
2114 H 32.652604586430805 19.107056654643895 26.41754657446759 H 0.0 **** 0.52
2115 H 33.618434585480585 20.131019848400875 25.86026180172981 H 0.0 **** 0.52
2116 M 32.80009503322047 19.87080711637065 26.020184663495677 M 0.0 **** -1.04
2117 O 48.89049256603313 46.969966580385275 17.587061729231692 O 0.0 **** 0.0
2118 H 48.26760873413327 47.69563907755376 17.54651669136615 H 0.0 **** 0.52
2119 H 48.852546224944994 46.57223632273235 16.717234854936095 H 0.0 **** 0.52
2120 M 48.80589803918275 47.011947594630726 17.470523164679463 M 0.0 **** -1.04
2121 O 26.296963623744908 29.81626784695186 37.99642546686626 O 0.0 **** 0.0
2122 H 25.920697652743936 29.822381426603386 37.11630315030395 H 0.0 **** 0.52
2123 H 26.446822596620873 28.89026617335618 38.18693293934967 H 0.0 **** 0.52
2124 M 26.267980923312198 29.69851035749747 37.90814618994346 M 0.0 **** -1.04
2125 O 21.60080675377393 49.619510079754434 9.912808159221626 O 0.0 **** 0.0
2126 H 21.92402259175647 50.35123836330262 9.387133866670085 H 0.0 **** 0.52
2127 H 21.22500999657318 50.03075747102869 10.691190643814654 H 0.0 **** 0.52
2128 M 21.594076253120193 49.765824472816014 9.945158076717103 M 0.0 **** -1.04
2129 O 20.03138682890903 1.21144862233308 23.0510566886446 O 0.0 **** 0.0
2130 H 19.600385681790687 0.5825519867173412 23.629811376023422 H 0.0 **** 0.52
2131 H 20.837941104848195 0.7736193648673506 22.77902182893846 H 0.0 **** 0.52
2132 M 20.079461490771305 1.0748941515732042 23.090321363434057 M 0.0 **** -1.04
2133 O 27.22565605841565 28.85032325766118 20.05087733742893 O 0.0 **** 0.0
2134 H 27.20729201610594 28.748437057490747 19.09929356034575 H 0.0 **** 0.52
2135 H 26.439221692687898 28.397877432532976 20.355903786436965 H 0.0 **** 0.52
2136 M 27.122632374073092 28.779361946052376 19.968109722148316 M 0.0 **** -1.04
2137 O 19.95930720854015 40.52646608083655 35.753635019997816 O 0.0 **** 0.0
2138 H 20.557782857541714 41.11694467896553 35.29604294084001 H 0.0 **** 0.52
2139 H 20.405171779341135 39.679487261466925 35.745843748415595 H 0.0 **** 0.52
2140 M 20.092996119651623 40.49363080380382 35.69405995980489 M 0.0 **** -1.04
2141 O 38.3460105341602 29.808902777008804 42.88613206088353 O 0.0 **** 0.0
2142 H 37.42237900423926 29.86437008956989 42.64106439320946 H 0.0 **** 0.52
2143 H 38.56469129990862 30.68702882647854 43.19806498457772 H 0.0 **** 0.52
2144 M 38.25576753331424 29.928414502191004 42.89469116850596 M 0.0 **** -1.04
2145 O 46.30307278111836 15.582153979011888 0.1938552291350944 O 0.0 **** 0.0
2146 H 47.19747267578571 15.502326303520357 -0.13766419907073413 H 0.0 **** 0.52
2147 H 46.37795165550657 16.166865310729833 0.9480005215849311 H 0.0 **** 0.52
2148 M 46.42715289513084 15.646785316235617 0.24795631176132965 M 0.0 **** -1.04
2149 O 17.792960927393764 32.307790522453445 17.39131446064451 O 0.0 **** 0.0
2150 H 16.933494953987218 32.721779839244505 17.31283305634411 H 0.0 **** 0.52
2151 H 18.196392160102832 32.427462360544396 16.531575503014615 H 0.0 **** 0.52
2152 M 17.73458249560231 32.37610568281633 17.271210393135718 M 0.0 **** -1.04
2153 O 29.685495562488835 24.285444136983788 35.00924031395397 O 0.0 **** 0.0
2154 H 30.186393259654903 24.79633622258548 35.64510098409248 H 0.0 **** 0.52
2155 H 30.31126919707499 24.09049768554109 34.311650564362225 H 0.0 **** 0.52
2156 M 29.829723729334173 24.325888331381474 35.00133823492686 M 0.0 **** -1.04
2157 O 13.387430968199038 36.628470794342746 0.4559570918139395 O 0.0 **** 0.0
2158 H 13.490351947803358 37.08575021845024 1.2905419675407361 H 0.0 **** 0.52
2159 H 14.248956354052934 36.686200321785236 0.04283566334131389 H 0.0 **** 0.52
2160 M 13.510892598742842 36.69439834131397 0.509910098846114 M 0.0 **** -1.04
2161 O 21.060943494995914 7.341267229579223 32.41575673236359 O 0.0 **** 0.0
2162 H 20.807439680653413 6.441396701338469 32.62117724776201 H 0.0 **** 0.52
2163 H 21.87951676786666 7.475012144438203 32.89354076808589 H 0.0 **** 0.52
2164 M 21.133279672391982 7.243193738749703 32.503215474558054 M 0.0 **** -1.04
2165 O 37.55209880485688 31.366269483763965 24.749030285710884 O 0.0 **** 0.0
2166 H 38.25045750593455 31.56089894246082 24.12401446303557 H 0.0 **** 0.52
2167 H 37.957400946129724 31.488575123238203 25.607517321387874 H 0.0 **** 0.52
2168 M 37.69338207556055 31.406841054872334 24.77891706901176 M 0.0 **** -1.04
2169 O 5.673513884819333 23.474005602512168 32.41616001926966 O 0.0 **** 0.0
2170 H 6.302673831627347 24.01413428831865 31.93798944259712 H 0.0 **** 0.52
2171 H 5.925216645504409 23.568770590312653 33.33479674023205 H 0.0 **** 0.52
2172 M 5.786275335488784 23.555279515104193 32.47254579773287 M 0.0 **** -1.04
2173 O 3.9463794812071455 14.023471905805735 19.78664314867802 O 0.0 **** 0.0
2174 H 3.4327016332474116 13.840414995477268 18.999970169295167 H 0.0 **** 0.52
2175 H 3.6360804099270894 14.879422408281243 20.082094765502674 H 0.0 **** 0.52
2176 M 3.8408995658002567 14.109610244463738 19.723760416930645 M 0.0 **** -1.04
2177 O 19.458875047966302 39.06201668186488 32.75799962412882 O 0.0 **** 0.0
2178 H 19.365454454381275 38.170389480878285 33.093413535929386 H 0.0 **** 0.52
2179 H 18.703125680430688 39.5316044283139 33.11092888644745 H 0.0 **** 0.52
2180 M 19.35017011662587 39.00799009056427 32.84611589692061 M 0.0 **** -1.04
2181 O 27.490233881026292 2.4802907487830415 16.507879556601953 O 0.0 **** 0.0
2182 H 27.927014457871604 2.9198965278718236 17.23739874124803 H 0.0 **** 0.52
2183 H 28.098250721666695 1.7891572594704144 16.245431555172203 H 0.0 **** 0.52
2184 M 27.62398071024097 2.4480921619268683 16.56767081627668 M 0.0 **** -1.04
2185 O 1.359307596552604 31.90162902008365 41.74613956223981 O 0.0 **** 0.0
2186 H 2.1628703713746944 31.84131398281764 41.22953752905518 H 0.0 **** 0.52
2187 H 1.5727507907618374 31.46969733238099 42.57324662253477 H 0.0 **** 0.52
2188 M 1.4894971226984026 31.838614734674252 41.78588792403331 M 0.0 **** -1.04
2189 O 0.6396321103980671 40.1452188867297 20.166278641376636 O 0.0 **** 0.0
2190 H 0.021207857237609096 40.87541948878639 20.142030474811918 H 0.0 **** 0.52
2191 H 1.318380461607702 40.38451450382416 19.53519440352217 H 0.0 **** 0.52
2192 M 0.6473538764713559 40.26932624220833 20.082387624695457 M 0.0 **** -1.04
2193 O 4.376904979121725 6.770260599793616 19.482778883011406 O 0.0 **** 0.0
2194 H 5.052908385388554 6.207218211912874 19.105643277800272 H 0.0 **** 0.52
2195 H 3.7528526565256253 6.906512377693716 18.769881249720864 H 0.0 **** 0.52
2196 M 4.383555681543029 6.715626612708945 19.3432412236089 M 0.0 **** -1.04
2197 O 30.930776220329452 10.572886741070574 12.373179413820242 O 0.0 **** 0.0
2198 H 30.696769482890875 9.783267235595345 12.861001907303718 H 0.0 **** 0.52
2199 H 31.211335782311142 11.195202887014851 13.044177233209194 H 0.0 **** 0.52
2200 M 30.936735340753604 10.551469921922829 12.521523330316215 M 0.0 **** -1.04
2201 O 17.82967419426687 38.62429733384922 30.72959668263192 O 0.0 **** 0.0
2202 H 18.453019656829998 39.12874544868504 31.25228217731184 H 0.0 **** 0.52
2203 H 17.222699856564105 38.254581809415875 31.370784167489116 H 0.0 **** 0.52
2204 M 17.83176975625514 38.641544818809464 30.878587595151796 M 0.0 **** -1.04
2205 O 3.43333989071467 8.559326270545327 8.03744838454984 O 0.0 **** 0.0
2206 H 3.9376559309369554 8.473525429320105 7.228417362854259 H 0.0 **** 0.52
2207 H 4.061836314960658 8.367656161492775 8.733496329257697 H 0.0 **** 0.52
2208 M 3.5783534770461998 8.523806179780848 8.02298491230578 M 0.0 **** -1.04
2209 O 7.482794801887871 37.990552980126076 31.39812591692161 O 0.0 **** 0.0
2210 H 8.423454856615363 37.81354362390876 31.405509262315338 H 0.0 **** 0.52
2211 H 7.1983165155480755 37.739899298565376 30.51922126909806 H 0.0 **** 0.52
2212 M 7.566793851941697 37.935806316265655 31.286560340496017 M 0.0 **** -1.04
2213 O 43.52973387973052 35.90451540720072 48.04982777774628 O 0.0 **** 0.0
2214 H 43.111978844999285 36.14465815188054 48.87689596386595 H 0.0 **** 0.52
2215 H 43.31079106758286 34.980456057311805 47.92979409094679 H 0.0 **** 0.52
2216 M 43.44822833775309 35.81696537366279 48.140337525306805 M 0.0 **** -1.04
2217 O 27.974483705812794 8.997812485961614 40.744801305245055 O 0.0 **** 0.0
2218 H 27.876036931724776 9.727360986827783 40.13300340969499 H 0.0 **** 0.52
2219 H 27.274506581175764 9.125427055128874 41.38509466123044 H 0.0 **** 0.52
2220 M 27.87227527319579 9.107540368697425 40.74844905884 M 0.0 **** -1.04
2221 O 10.748511569925045 26.052874151621733 22.995394292666575 O 0.0 **** 0.0
2222 H 9.991755980084541 25.46954974821276 23.052691453769384 H 0.0 **** 0.52
2223 H 11.101929771870465 25.90207518202873 22.118704892545253 H 0.0 **** 0.52
2224 M 10.696878805687252 25.958897120692107 22.890501322188044 M 0.0 **** -1.04
2225 O 21.56226647040274 49.17212145104469 1.5208938745479585 O 0.0 **** 0.0
2226 H 22.293241050151376 49.10183912253379 2.1348690966318316 H 0.0 **** 0.52
2227 H 20.941412662894866 49.75864530246196 1.953049961801355 H 0.0 **** 0.52
2228 M 21.576363408117878 49.23820691730853 1.6548112418784697 M 0.0 **** -1.04
2229 O 29.636944441557326 13.250852774992026 41.8828488110626 O 0.0 **** 0.0
2230 H 29.514337934987985 12.405813965573401 42.31540656853305 H 0.0 **** 0.52
2231 H 29.826356355435475 13.02860092386365 40.971280405416216 H 0.0 **** 0.52
2232 M 29.64549629676696 13.114225982665253 41.8215293079338 M 0.0 **** -1.04
2233 O 11.509334593415666 46.39661396084264 47.55007460126567 O 0.0 **** 0.0
2234 H 11.844691027269725 47.28795384154402 47.646399209053044 H 0.0 **** 0.52
2235 H 10.883180125351743 46.452481215276705 46.82824543999618 H 0.0 **** 0.52
2236 M 11.472108651679427 46.51786852639034 47.47000228684488 M 0.0 **** -1.04
2237 O 30.51394216565276 5.3925733083768135 28.600458810770505 O 0.0 **** 0.0
2238 H 30.596295796992674 6.209352257165472 29.09271853537848 H 0.0 **** 0.52
2239 H 29.597581781856814 5.138214823493335 28.709146131366907 H 0.0 **** 0.52
2240 M 30.40717903271774 5.4645696564091795 28.67738790735892 M 0.0 **** -1.04
2241 O 5.1603458403702644 31.446482433356284 26.610167094439845 O 0.0 **** 0.0
2242 H 5.174613125280813 31.16476623664909 27.52485822604534 H 0.0 **** 0.52
2243 H 4.858061121069977 32.35409291111967 26.64327461771319 H 0.0 **** 0.52
2244 M 5.123476382542212 31.52660461500102 26.731497121559855 M 0.0 **** -1.04
2245 O 49.67183513216809 33.76256264245994 35.46562624876606 O 0.0 **** 0.0
2246 H 50.249580387674555 33.204473180467744 34.94507321052447 H 0.0 **** 0.52
2247 H 49.57032541531411 34.557431891219395 34.94207370421459 H 0.0 **** 0.52
2248 M 49.73279907327511 33.79287297009821 35.331967740903025 M 0.0 **** -1.04
2249 O 25.99674182702094 30.32098793809401 10.033231616957593 O 0.0 **** 0.0
2250 H 26.182775044358145 29.382365265780784 10.008549158556804 H 0.0 **** 0.52
2251 H 25.06721885846542 30.37566380215641 10.25509968206552 H 0.0 **** 0.52
2252 M 25.901566510882805 30.20783172684712 10.058474241132885 M 0.0 **** -1.04
2253 O 0.6786922832956677 45.760257991883165 31.431808612844257 O 0.0 **** 0.0
2254 H 0.6747362532701331 46.440135821272705 30.75802906783269 H 0.0 **** 0.52
2255 H 1.5370643393407661 45.34492110810897 31.348611269793935 H 0.0 **** 0.52
2256 M 0.7880681140723809 45.79412265251373 31.334905916311705 M 0.0 **** -1.04
2257 O 5.320450544208459 27.66876139239447 27.135478140397094 O 0.0 **** 0.0
2258 H 5.204268628292039 26.8188573772814 27.560205284872794 H 0.0 **** 0.52
2259 H 4.595116958968451 28.20130239148255 27.461853195183707 H 0.0 **** 0.52
2260 M 5.2127259580525696 27.628134990968643 27.231628660654266 M 0.0 **** -1.04
2261 O 13.254991534442958 10.613786058698963 8.276824806536245 O 0.0 **** 0.0
2262 H 13.03236305696732 10.935411892344604 9.15045126709149 H 0.0 **** 0.52
2263 H 14.154799641696371 10.297957411797668 8.359450723573 H 0.0 **** 0.52
2264 M 13.341678883788724 10.614527553576941 8.399237432562902 M 0.0 **** -1.04
2265 O 11.850612207190883 14.224419496299518 4.101120508356563 O 0.0 **** 0.0
2266 H 12.076365193026861 14.390898573906668 5.016297186704202 H 0.0 **** 0.52
2267 H 12.677633582452104 13.968698317590224 3.6926229355684357 H 0.0 **** 0.52
2268 M 11.985381061006525 14.212995206154503 4.165982002996348 M 0.0 **** -1.04
2269 O 1.0394010396664304 38.45456469505336 36.99740055501364 O 0.0 **** 0.0
2270 H 0.10572613874272796 38.265126961485784 36.90469835630059 H 0.0 **** 0.52
2271 H 1.2212999715500938 38.315842390202214 37.92686216425993 H 0.0 **** 0.52
2272 M 0.9431640314898997 38.41255626293265 37.1045165348718 M 0.0 **** -1.04
2273 O 47.05643802386175 34.23113277137732 33.81381414198321 O 0.0 **** 0.0
2274 H 46.86586032175283 33.89896571377701 34.6910677515995 H 0.0 **** 0.52
2275 H 47.658041205006114 33.58781268383348 33.439058496745744 H 0.0 **** 0.52
2276 M 47.10905442504681 34.106258946025264 33.878140543322566 M 0.0 **** -1.04
2277 O 49.06036039303963 2.29557255924308 24.225166531705757 O 0.0 **** 0.0
2278 H 49.05865810331642 1.6130426314460409 24.896269687189765 H 0.0 **** 0.52
2279 H 49.28659336645765 3.0964945182825674 24.698000624378135 H 0.0 **** 0.52
2280 M 49.08910304697822 2.310727782044085 24.371604797034294 M 0.0 **** -1.04
2281 O 10.633945501199339 35.59667954276648 39.41444396046468 O 0.0 **** 0.0
2282 H 10.445605595494701 34.78817583126332 38.93791525055384 H 0.0 **** 0.52
2283 H 9.772710910732641 35.96159544887841 39.61776252939213 H 0.0 **** 0.52
2284 M 10.499586578468232 35.539894878188704 39.37946922063271 M 0.0 **** -1.04
2285 O 21.655023875648283 32.69461193824793 24.84587215369011 O 0.0 **** 0.0
2286 H 20.99700695310724 32.664211561253616 24.151380308728598 H 0.0 **** 0.52
2287 H 21.19043765607248 32.40127297253775 25.629670883573088 H 0.0 **** 0.52
2288 M 21.51131674655511 32.653169356538186 24.857304516307913 M 0.0 **** -1.04
2289 O 1.6859862571149016 10.198013028036362 37.40366415532173 O 0.0 **** 0.0
2290 H 0.9908120961437343 10.751991877495543 37.04860335915188 H 0.0 **** 0.52
2291 H 1.995977292011749 9.691282332437765 36.65309312371474 H 0.0 **** 0.52
2292 M 1.636677803120545 10.204061642806344 37.26212942205443 M 0.0 **** -1.04
2293 O 39.68261241177556 11.731481613129136 13.51514163585028 O 0.0 **** 0.0
2294 H 39.995273767977864 10.829703159906629 13.58771672968252 H 0.0 **** 0.52
2295 H 38.728918956737445 11.653551436465179 13.490175565094143 H 0.0 **** 0.52
2296 M 39.60055244660349 11.606066892558115 13.521236084638875 M 0.0 **** -1.04
2297 O 19.208697778568823 13.688789818396714 31.681201319079094 O 0.0 **** 0.0
2298 H 18.89926859307044 13.363024408625868 30.83600398568096 H 0.0 **** 0.52
2299 H 18.9123400975984 14.598470965532556 31.710871904060046 H 0.0 **** 0.52
2300 M 19.13114990380762 13.763538392466927 31.57680411055088 M 0.0 **** -1.04
2301 O 21.028116502622048 7.700271101495534 2.360555337855069 O 0.0 **** 0.0
2302 H 21.302627998496263 8.28490482271731 1.6541026812291029 H 0.0 **** 0.52
2303 H 21.585577875992808 7.940078606142609 3.1007972146785403 H 0.0 **** 0.52
2304 M 21.134619297089344 7.80581000337004 2.3648801419858767 M 0.0 **** -1.04
2305 O 4.28403511355638 30.43299502413158 45.84957734769492 O 0.0 **** 0.0
2306 H 3.640251936069281 30.919189392170846 45.33442002979186 H 0.0 **** 0.52
2307 H 4.987162264690886 30.23583367894744 45.230733903645266 H 0.0 **** 0.52
2308 M 4.291631621429759 30.469995073793644 45.70441144079483 M 0.0 **** -1.04
2309 O 10.20468082591938 28.040577369287 16.921158377252514 O 0.0 **** 0.0
2310 H 9.988932303760286 27.438827894174132 16.208712458886012 H 0.0 **** 0.52
2311 H 10.972986850775422 28.51782248476666 16.607836676500323 H 0.0 **** 0.52
2312 M 10.275415103543121 28.024639665471923 16.78984754153374 M 0.0 **** -1.04
2313 O 46.55692965265656 31.831613436973356 12.785483106521083 O 0.0 **** 0.0
2314 H 45.67536574300568 32.20181274896575 12.740477199691687 H 0.0 **** 0.52
2315 H 46.78672278685967 31.871160678803225 13.713846558628546 H 0.0 **** 0.52
2316 M 46.47349516688677 31.88406640704472 12.898563700134673 M 0.0 **** -1.04
2317 O 32.544074616689706 13.491039275367449 20.335789771769257 O 0.0 **** 0.0
2318 H 32.972016144669276 14.344789028203152 20.400639535251003 H 0.0 **** 0.52
2319 H 32.3446542079283 13.392648511130933 19.40477930006739 H 0.0 **** 0.52
2320 M 32.573327655142 13.587734851562233 20.2249097373643 M 0.0 **** -1.04
2321 O 25.23030522201228 3.667857362565009 29.40021533460112 O 0.0 **** 0.0
2322 H 25.25355384644427 2.7878672443672485 29.7761225066186 H 0.0 **** 0.52
2323 H 24.41857559628751 3.690991722631402 28.893472134289667 H 0.0 **** 0.52
2324 M 25.1293697933876 3.558168394716951 29.383466327651472 M 0.0 **** -1.04
2325 O 36.15479725992597 16.61792192392747 20.563257842029884 O 0.0 **** 0.0
2326 H 35.289477082938994 16.696907263716568 20.96476922681876 H 0.0 **** 0.52
2327 H 36.23576452476301 15.688662911903677 20.348427976473886 H 0.0 **** 0.52
2328 M 36.05439002802174 16.509075522438195 20.587155503906658 M 0.0 **** -1.04
2329 O 46.11722187231645 16.717654375085935 32.475030440818706 O 0.0 **** 0.0
2330 H 46.621894200900165 17.529760489599457 32.51994209041226 H 0.0 **** 0.52
2331 H 46.052809423641605 16.42454873105272 33.383969156538384 H 0.0 **** 0.52
2332 M 46.17358056628222 16.784093151943804 32.59713504959779 M 0.0 **** -1.04
2333 O 26.928886976630338 46.254695618718635 26.967214059878145 O 0.0 **** 0.0
2334 H 27.1387582261123 47.07605932644648 26.522754208755263 H 0.0 **** 0.52
2335 H 27.685657720479796 45.69231531923905 26.80212206802048 H 0.0 **** 0.52
2336 M 27.052629505261038 46.287849193498246 26.88918423983217 M 0.0 **** -1.04
2337 O 21.598560660304624 5.441109602357424 13.038669297706198 O 0.0 **** 0.0
2338 H 21.947526095130705 4.550570593419102 13.001342985703813 H 0.0 **** 0.52
2339 H 22.09971001230894 5.866274139606815 13.734595559434458 H 0.0 **** 0.52
2340 M 21.70738600840353 5.381535780200009 13.122978490376282 M 0.0 **** -1.04
2341 O 2.143700052533596 21.787523131298318 6.820708926257467 O 0.0 **** 0.0
2342 H 2.8411790602325198 21.562663644350422 6.204925312579853 H 0.0 **** 0.52
2343 H 1.9052331764271457 22.686720054872 6.595303752683996 H 0.0 **** 0.52
2344 M 2.2024591956307304 21.87384731923884 6.713025794556621 M 0.0 **** -1.04
2345 O 31.648764867479684 21.809031671240426 35.28265502641887 O 0.0 **** 0.0
2346 H 32.592693139371136 21.874369726057438 35.137882712140275 H 0.0 **** 0.52
2347 H 31.388529172046944 21.015668212859676 34.81459409152615 H 0.0 **** 0.52
2348 M 31.736286278275117 21.71583504827507 35.204204709139546 M 0.0 **** -1.04
2349 O 43.14234332372068 34.63993737099243 34.65996207407186 O 0.0 **** 0.0
2350 H 43.35265741176747 33.72543284674553 34.84884935023777 H 0.0 **** 0.52
2351 H 43.68733179450531 34.86044592684548 33.9045872034435 H 0.0 **** 0.52
2352 M 43.239031410715 34.55109714190128 34.58744509648457 M 0.0 **** -1.04
2353 O 31.344825084754454 29.832379618547346 27.847938515080145 O 0.0 **** 0.0
2354 H 31.269336823594696 29.838108055655223 26.893737699566685 H 0.0 **** 0.52
2355 H 31.054149365314544 30.703809779496552 28.11690945001797 H 0.0 **** 0.52
2356 M 31.29795153310554 29.944667220672006 27.76022049695422 M 0.0 **** -1.04
2357 O 38.21414392568752 43.43561431679081 45.186528470602596 O 0.0 **** 0.0
2358 H 37.360816961157994 43.057596632047456 45.39904935124462 H 0.0 **** 0.52
2359 H 38.8394155622815 42.91570560232023 45.69146304531341 H 0.0 **** 0.52
2360 M 38.18494979221503 43.32066795713045 45.278371539544224 M 0.0 **** -1.04
2361 O 39.78299504664076 35.190640355110915 17.682382137378454 O 0.0 **** 0.0
2362 H 38.86002703331464 35.30391182969484 17.909378997611498 H 0.0 **** 0.52
2363 H 40.256948464929636 35.68629866380135 18.35015547199034 H 0.0 **** 0.52
2364 M 39.72551589134832 35.26859047465425 17.796923807931257 M 0.0 **** -1.04
2365 O 26.80892997956161 17.588747010496846 37.811864361708 O 0.0 **** 0.0
2366 H 27.36160900861696 17.90278699151486 37.09621511609156 H 0.0 **** 0.52
2367 H 25.91456821852858 17.76293761495043 37.51859989571233 H 0.0 **** 0.52
2368 M 26.765189987943494 17.65124671114293 37.682710465164426 M 0.0 **** -1.04
2369 O 38.31648151403303 17.239245020657375 37.224487672210124 O 0.0 **** 0.0
2370 H 38.25182282988136 18.137781600223256 37.548032724985816 H 0.0 **** 0.52
2371 H 39.206030679315006 16.966603318089586 37.449427416443775 H 0.0 **** 0.52
2372 M 38.422077911280354 17.319368114172214 37.29470117318409 M 0.0 **** -1.04
2373 O 25.62875436768364 22.408860924457013 35.97265736964185 O 0.0 **** 0.0
2374 H 25.51835939870913 22.566300958418353 35.03497196437104 H 0.0 **** 0.52
2375 H 25.665923796436243 23.2833549197907 36.360094845516386 H 0.0 **** 0.52
2376 M 25.61938095634767 22.54096182256923 35.90221844952744 M 0.0 **** -1.04
2377 O 0.24598133050838608 25.129119757492916 42.50412031122793 O 0.0 **** 0.0
2378 H -0.0008608611134874877 24.924227275586087 43.405961558192836 H 0.0 **** 0.52
2379 H -0.5657076206801648 25.034376586855267 42.00570869465905 H 0.0 **** 0.52
2380 M 0.11047570617335156 25.090762403883485 42.55576377307597 M 0.0 **** -1.04
2381 O 42.93202246339087 42.78267319329623 32.8214863465274 O 0.0 **** 0.0
2382 H 42.91467613172125 42.26456918711139 33.626158113005765 H 0.0 **** 0.52
2383 H 43.29562635683365 42.19090899927207 32.16282429951863 H 0.0 **** 0.52
2384 M 42.9763475377723 42.64059591072049 32.84017791890607 M 0.0 **** -1.04
2385 O 17.731900659924662 17.215196376719987 25.629059584683603 O 0.0 **** 0.0
2386 H 18.085930050984835 16.37664781842601 25.925247675292486 H 0.0 **** 0.52
2387 H 17.035111483099428 16.97872391969031 25.01685476909862 H 0.0 **** 0.52
2388 M 17.688023091842272 17.077580148294814 25.588605460799844 M 0.0 **** -1.04
2389 O 40.25904496440034 32.79611581956013 15.014645252172274 O 0.0 **** 0.0
2390 H 40.11815714591594 33.65297509692643 15.417349654850039 H 0.0 **** 0.52
2391 H 39.44195283853304 32.61130633183023 14.551573451872665 H 0.0 **** 0.52
2392 M 40.136410909132955 32.88214655823709 15.006917061350798 M 0.0 **** -1.04
2393 O 0.38386725025569557 26.623648415137023 18.44424572069011 O 0.0 **** 0.0
2394 H -0.4047707205301663 27.151336950710732 18.57003508311594 H 0.0 **** 0.52
2395 H 0.6880592202259326 26.431498170136106 19.331249420855663 H 0.0 **** 0.52
2396 M 0.32185281362762586 26.66660138029026 18.57389604397264 M 0.0 **** -1.04
2397 O 36.70324041624153 5.437572019939178 44.788872768039255 O 0.0 **** 0.0
2398 H 36.021630578573536 6.107620508364197 44.840571333561286 H 0.0 **** 0.52
2399 H 37.193832287389824 5.654951022390592 43.9962230699021 H 0.0 **** 0.52
2400 M 36.67878792062973 5.551174268640274 44.69402151979024 M 0.0 **** -1.04
2401 O 11.941619233955691 43.203566985391646 31.305206901168106 O 0.0 **** 0.0
2402 H 11.96307037700614 44.14950082579219 31.45004145998614 H 0.0 **** 0.52
2403 H 11.716754392079764 42.83501397238147 32.159509604906276 H 0.0 **** 0.52
2404 M 11.915579764648342 43.27747927681291 31.433109153830245 M 0.0 **** -1.04
2405 O 28.786477187467106 10.389072600710506 7.919440739256404 O 0.0 **** 0.0
2406 H 28.044696604427344 10.967782027021498 7.743128253990448 H 0.0 **** 0.52
2407 H 28.447814881978566 9.508607091155252 7.757217285611585 H 0.0 **** 0.52
2408 M 28.648166948916447 10.350443792723386 7.876103666817837 M 0.0 **** -1.04
2409 O 17.48342431334312 1.012662668738713 11.969683816438419 O 0.0 **** 0.0
2410 H 17.145197711238936 0.5060177250390652 11.231345930403094 H 0.0 **** 0.52
2411 H 16.799446554232105 0.9509742067279205 12.636466478793764 H 0.0 **** 0.52
2412 M 17.35256888578003 0.9399085065596111 11.96052365880292 M 0.0 **** -1.04
2413 O 15.468318950516677 41.34444149702549 35.78833901650714 O 0.0 **** 0.0
2414 H 16.202293247185192 41.00488213053473 35.276276226352614 H 0.0 **** 0.52
2415 H 15.220359402575374 42.15515184875895 35.3439359810107 H 0.0 **** 0.52
2416 M 15.53053498902106 41.40475566016379 35.66589912846913 M 0.0 **** -1.04
2417 O 14.47854344621413 4.980544017212679 34.952376677219355 O 0.0 **** 0.0
2418 H 13.804916864153537 4.334891418277962 34.738861878884904 H 0.0 **** 0.52
2419 H 14.878806037533822 4.652450020803286 35.757592966109954 H 0.0 **** 0.52
2420 M 14.443549639514549 4.8558920027283605 35.02812215577527 M 0.0 **** -1.04
2421 O 16.691420903335498 8.35053547338282 7.129522299535009 O 0.0 **** 0.0
2422 H 17.561808635848408 8.347855343154656 7.527826607776619 H 0.0 **** 0.52
2423 H 16.77554845202036 7.780604031732246 6.365108664228043 H 0.0 **** 0.52
2424 M 16.813610235481228 8.277234449585585 7.082655386760075 M 0.0 **** -1.04
2425 O 48.195901149060326 38.49026529154476 37.142490420800904 O 0.0 **** 0.0
2426 H 48.06972633565824 38.94216622020337 37.97681387685358 H 0.0 **** 0.52
2427 H 48.26241115245032 37.56497689355149 37.378385009491225 H 0.0 **** 0.52
2428 M 48.18826303994611 38.429665307954856 37.2794921279584 M 0.0 **** -1.04
2429 O 10.064254762101392 7.897722070626436 10.876777237057532 O 0.0 **** 0.0
2430 H 9.130675362105682 8.039681140215933 10.720233550676177 H 0.0 **** 0.52
2431 H 10.18904713621257 6.957552189311372 10.747407717229137 H 0.0 **** 0.52
2432 M 9.960719995339533 7.795540687661585 10.840176619617992 M 0.0 **** -1.04
2433 O 3.1619887498583807 48.849064224757 25.813244591764512 O 0.0 **** 0.0
2434 H 2.979275443840436 49.77054016109342 25.629597927471128 H 0.0 **** 0.52
2435 H 3.016210516947055 48.40444525715989 24.978204438665085 H 0.0 **** 0.52
2436 M 3.119937492485043 48.91010725971661 25.68284017251714 M 0.0 **** -1.04
2437 O 27.98331608685027 10.549398350987929 48.820587403351205 O 0.0 **** 0.0
2438 H 27.34975638956488 10.245365062123689 49.470506382081886 H 0.0 **** 0.52
2439 H 27.83367562564591 9.989037771885926 48.05911998564031 H 0.0 **** 0.52
2440 M 27.883056940426588 10.438745319999896 48.806308166623026 M 0.0 **** -1.04
2441 O 40.65086232669597 33.37792191154591 27.519110013125506 O 0.0 **** 0.0
2442 H 40.6381590391858 34.22914134992786 27.956709373856 H 0.0 **** 0.52
2443 H 40.80294175060667 33.58441432660399 26.59690538387339 H 0.0 **** 0.52
2444 M 40.66870467159224 33.51332248697223 27.457074865629792 M 0.0 **** -1.04
2445 O 49.44594043070769 8.41849007662396 26.72486671534165 O 0.0 **** 0.0
2446 H 48.800109095708564 7.759641110028419 26.97991271900291 H 0.0 **** 0.52
2447 H 48.98085019205651 8.984604190241328 26.10888498189742 H 0.0 **** 0.52
2448 M 49.30372888700777 8.406618131372753 26.67866290159809 M 0.0 **** -1.04
2449 O 20.09925871625652 28.096761266302103 38.012594130557936 O 0.0 **** 0.0
2450 H 19.382116302395588 28.688167158941756 38.24101145251523 H 0.0 **** 0.52
2451 H 20.8626513862767 28.667630476443176 37.92559339987886 H 0.0 **** 0.52
2452 M 20.105178907118663 28.245546815663484 38.030697184731075 M 0.0 **** -1.04
2453 O 1.709674954181439 16.300426438420605 29.810502886403636 O 0.0 **** 0.0
2454 H 1.9125324340259944 16.12023489016257 30.72844024700783 H 0.0 **** 0.52
2455 H 0.7532392229054973 16.30611641861375 29.772730784376357 H 0.0 **** 0.52
2456 M 1.6132073790698118 16.278087781098865 29.923175880551 M 0.0 **** -1.04
2457 O 3.0268055705375585 49.47517225070378 1.999604477263528 O 0.0 **** 0.0
2458 H 3.2796009969357796 50.36246295450789 2.254628870260185 H 0.0 **** 0.52
2459 H 2.1913488153906826 49.326965909188566 2.442636350835284 H 0.0 **** 0.52
2460 M 2.952217225111622 49.56978412516841 2.088965070736941 M 0.0 **** -1.04
2461 O 17.761115248862737 41.18622777774059 5.839421121568284 O 0.0 **** 0.0
2462 H 17.159724757461092 40.83892097305378 6.498159004848782 H 0.0 **** 0.52
2463 H 18.098734055840893 41.994605657980365 6.22512627600705 H 0.0 **** 0.52
2464 M 17.727349177328932 41.24525129013465 5.973123143762663 M 0.0 **** -1.04
2465 O 45.297076821685614 23.30470461955086 27.034013279586535 O 0.0 **** 0.0
2466 H 45.377392048678765 22.54067524444874 26.46301636807499 H 0.0 **** 0.52
2467 H 44.355172339825394 23.40155981050358 27.17423927495746 H 0.0 **** 0.52
2468 M 45.186783346572696 23.21929765952834 26.978869194670573 M 0.0 **** -1.04
2469 O 32.826379215841406 42.046727463051774 43.86090985147199 O 0.0 **** 0.0
2470 H 33.58770935139124 41.46707433130717 43.88557250697619 H 0.0 **** 0.52
2471 H 33.09669686166588 42.819193152105534 44.35734968355219 H 0.0 **** 0.52
2472 M 32.958443561727016 42.071409393676696 43.92761755411895 M 0.0 **** -1.04
2473 O 9.113435912801872 10.735219123397584 29.133542078006847 O 0.0 **** 0.0
2474 H 8.358767506528324 10.23819506810247 29.449250299773443 H 0.0 **** 0.52
2475 H 9.658976749115823 10.862121267660484 29.909757767000464 H 0.0 **** 0.52
2476 M 9.086664648641646 10.687838840293132 29.273322679537223 M 0.0 **** -1.04
2477 O 34.95871334349488 18.50361473430218 47.27975649910289 O 0.0 **** 0.0
2478 H 35.166112450700794 18.062167795460574 46.456143070465295 H 0.0 **** 0.52
2479 H 35.61577754557469 18.181484058969485 47.896788207453874 H 0.0 **** 0.52
2480 M 35.06937584676225 18.405866672860054 47.253310869276355 M 0.0 **** -1.04
2481 O 37.80548893297424 43.953854490443014 23.464757396101046 O 0.0 **** 0.0
2482 H 36.91400500908501 43.61252783881826 23.394183714573895 H 0.0 **** 0.52
2483 H 37.720874370161326 44.73475476391204 24.01180740330019 H 0.0 **** 0.52
2484 M 37.680535778633136 44.01012531588467 23.52575202119467 M 0.0 **** -1.04
2485 O 42.44013650137517 41.562543076285024 26.65598921287001 O 0.0 **** 0.0
2486 H 41.65601394242739 41.04609004770118 26.469828568443425 H 0.0 **** 0.52
2487 H 42.29102024990934 41.91791483597348 27.532176532473112 H 0.0 **** 0.52
2488 M 42.320669853523945 41.541922784223416 26.74432146450254 M 0.0 **** -1.04
2489 O 38.66091646499733 34.7018017185526 24.197720310654585 O 0.0 **** 0.0
2490 H 38.97862889380887 34.7938024350775 23.299486686056422 H 0.0 **** 0.52
2491 H 39.45408838673081 34.696985359934736 24.73352273651738 H 0.0 **** 0.52
2492 M 38.80312306649666 34.71296256317734 24.151324864463433 M 0.0 **** -1.04
2493 O 3.0034668699401124 43.18203173911431 49.17006221687916 O 0.0 **** 0.0
2494 H 2.5953246142314583 42.50946920247634 49.71532095954212 H 0.0 **** 0.52
2495 H 2.3051026122640437 43.81638686828177 49.00847654910278 H 0.0 **** 0.52
2496 M 2.8618205564667747 43.177140647740146 49.21917761495947 M 0.0 **** -1.04
2497 O 36.971997660508926 37.4672469440274 9.977408860229481 O 0.0 **** 0.0
2498 H 37.32614164191433 36.77855901752543 9.414808594569273 H 0.0 **** 0.52
2499 H 37.68258171702865 37.668865361871624 10.586218183078742 H 0.0 **** 0.52
2500 M 37.108295646915806 37.40489621524325 9.983324105576884 M 0.0 **** -1.04
2501 O 47.3193683769287 42.422178962274025 14.854689831475648 O 0.0 **** 0.0
2502 H 47.32811076849763 41.48974990758844 14.638521594223766 H 0.0 **** 0.52
2503 H 46.79936251468433 42.82489584016583 14.159245645494943 H 0.0 **** 0.52
2504 M 47.253920560529075 42.35436890996371 14.737991912645933 M 0.0 **** -1.04
2505 O 12.667902008923576 21.695949452192167 40.3152210720301 O 0.0 **** 0.0
2506 H 13.172859244647576 20.888292241301443 40.22068039698748 H 0.0 **** 0.52
2507 H 13.187772108901555 22.35863656790943 39.860458515675106 H 0.0 **** 0.52
2508 M 12.799092853617275 21.67739097925255 40.24490280224399 M 0.0 **** -1.04
2509 O 44.53123351833638 49.95856622671825 22.64999179538927 O 0.0 **** 0.0
2510 H 44.0493861943667 49.2516313695096 22.22069541730445 H 0.0 **** 0.52
2511 H 43.86042257525521 50.602065220383786 22.878352250212476 H 0.0 **** 0.52
2512 M 44.38367942910613 49.95044571651207 22.624268902969746 M 0.0 **** -1.04
2513 O 7.739919857827038 24.118599272207277 8.565354528386944 O 0.0 **** 0.0
2514 H 8.054924727023655 23.24386154456301 8.337682053986773 H 0.0 **** 0.52
2515 H 7.703308213858447 24.58533078892617 7.730459244709095 H 0.0 **** 0.52
2516 M 7.775558080125902 24.066370034647196 8.429332334825464 M 0.0 **** -1.04
2517 O 3.5745950440864647 4.566943494421942 2.07797478110429 O 0.0 **** 0.0
2518 H 3.9118324661399484 5.263216078105131 1.5143222241761876 H 0.0 **** 0.52
2519 H 3.6556580169656527 4.916215909936064 2.9654802156925255 H 0.0 **** 0.52
2520 M 3.6281431983110295 4.7007858887661556 2.119431681873247 M 0.0 **** -1.04
2521 O 48.9015880673421 2.679875348403332 33.24740278520449 O 0.0 **** 0.0
2522 H 48.192439808238845 2.7239283144687616 32.60599986502659 H 0.0 **** 0.52
2523 H 48.853845612952526 3.5133954968052334 33.71558405547811 H 0.0 **** 0.52
2524 M 48.804696738110174 2.792215350101513 33.22522822473252 M 0.0 **** -1.04
2525 O 25.775740459591315 38.73087428723104 5.344193582545735 O 0.0 **** 0.0
2526 H 25.99986011567588 39.28480188521204 6.09196585137957 H 0.0 **** 0.52
2527 H 26.516546398309664 38.82483438275711 4.74535637815567 H 0.0 **** 0.52
2528 M 25.899263056470648 38.8138124382993 5.363259380341063 M 0.0 **** -1.04
2529 O 28.883253378274606 12.951980397474912 2.9826209498313654 O 0.0 **** 0.0
2530 H 28.25769516988698 13.092620401575338 3.693343332261536 H 0.0 **** 0.52
2531 H 29.73186264772258 12.882830303535215 3.4200102850052163 H 0.0 **** 0.52
2532 M 28.91180679580865 12.961132012399801 3.1295934213809313 M 0.0 **** -1.04
2533 O 32.83542310995585 36.85551087489891 12.095334446095565 O 0.0 **** 0.0
2534 H 31.949177726895183 36.49396343956418 12.104346477636758 H 0.0 **** 0.52
2535 H 32.97016952652856 37.18275633708883 12.98470665674412 H 0.0 **** 0.52
2536 M 32.73922162698656 36.85112007401285 12.210339015344301 M 0.0 **** -1.04
2537 O 24.903607643719063 24.605765109584926 29.047911394876863 O 0.0 **** 0.0
2538 H 24.175492986206493 24.72112390960719 29.658460666239293 H 0.0 **** 0.52
2539 H 25.57401814659408 24.150361637277687 29.557212038946545 H 0.0 **** 0.52
2540 M 24.896220900263078 24.56223498610571 29.191265910274836 M 0.0 **** -1.04
2541 O 10.70535482808723 11.173552021364848 31.021271834652662 O 0.0 **** 0.0
2542 H 11.427465182791792 10.654798028197696 30.666758136283605 H 0.0 **** 0.52
2543 H 10.305961305488374 10.608456521694272 31.682619569405595 H 0.0 **** 0.52
2544 M 10.746666573968994 11.034806082984773 31.060550121659954 M 0.0 **** -1.04
2545 O 33.333563761540844 44.644734768495695 44.72450510668458 O 0.0 **** 0.0
2546 H 33.61074186086267 45.46727111886917 44.320976662242316 H 0.0 **** 0.52
2547 H 33.64683617641269 44.70270601423677 45.62712828368978 H 0.0 **** 0.52
2548 M 33.40914900407055 44.75745070044905 44.78839563291185 M 0.0 **** -1.04
2549 O 36.70746551116075 5.927535752316288 9.907361207637955 O 0.0 **** 0.0
2550 H 35.79976713515391 6.197828825500826 10.04612203797955 H 0.0 **** 0.52
2551 H 37.21993051874123 6.5116849842545 10.466270008653481 H 0.0 **** 0.52
2552 M 36.656870598250265 6.036915277051038 9.99667154380002 M 0.0 **** -1.04
2553 O 33.52069071496761 16.855365695840746 19.49839350817055 O 0.0 **** 0.0
2554 H 33.430704857815265 16.669372223899757 20.43302648657459 H 0.0 **** 0.52
2555 H 34.4640085724894 16.941200489991864 19.360512509838486 H 0.0 **** 0.52
2556 M 33.629927476294654 16.842544233013115 19.60038727933697 M 0.0 **** -1.04
2557 O 39.83574220902415 35.28901317247919 21.67788520120803 O 0.0 **** 0.0
2558 H 40.62472454006948 35.59601022351871 22.124528353575776 H 0.0 **** 0.52
2559 H 40.144285466220595 34.59454435346832 21.09586910715223 H 0.0 **** 0.52
2560 M 39.97623946713304 35.23941126139278 21.660556015582348 M 0.0 **** -1.04
2561 O 5.3254318405963055 5.405629772421818 45.40766721143852 O 0.0 **** 0.0
2562 H 6.232393840191767 5.647175787535389 45.2197777548528 H 0.0 **** 0.52
2563 H 4.951918977455691 5.191975493010283 44.5526423040176 H 0.0 **** 0.52
2564 M 5.393719867898958 5.4092006676180375 45.27416131343922 M 0.0 **** -1.04
2565 O 1.2287039097049828 14.73372078953394 10.62019862218294 O 0.0 **** 0.0
2566 H 1.1550638919462983 14.087763861431254 9.91767000947712 H 0.0 **** 0.52
2567 H 1.9656333536056252 14.429324512090304 11.149825895085744 H 0.0 **** 0.52
2568 M 1.313613121749107 14.61206355929876 10.598064518077638 M 0.0 **** -1.04
2569 O 49.44543209499304 44.6445710750943 4.531168360605338 O 0.0 **** 0.0
2570 H 50.37173879522015 44.41954299052022 4.618034133875562 H 0.0 **** 0.52
2571 H 49.17358362706901 44.887971906685884 5.4160891328902965 H 0.0 **** 0.52
2572 M 49.529211073339255 44.64692328785389 4.655569699840031 M 0.0 **** -1.04
2573 O 35.16544157954869 49.12957933669755 5.6698113048952266 O 0.0 **** 0.0
2574 H 34.40718446677551 49.705166625773344 5.569944321078111 H 0.0 **** 0.52
2575 H 35.91391415290852 49.72447271643262 5.715839706800786 H 0.0 **** 0.52
2576 M 35.16418935469479 49.27941537952611 5.662919269099746 M 0.0 **** -1.04
2577 O 1.4815097379922704 0.7720993651666646 46.02089753345497 O 0.0 **** 0.0
2578 H 1.23377926976629 1.5150637213304956 46.57122708647037 H 0.0 **** 0.52
2579 H 2.386969549054299 0.952145195416801 45.76800405970251 H 0.0 **** 0.52
2580 M 1.5657077671761572 0.8902558700547532 46.05897324822427 M 0.0 **** -1.04
2581 O 27.0817399315945 2.3621010000684137 47.272810521394945 O 0.0 **** 0.0
2582 H 26.242962141128313 2.610365967424343 47.6614543989381 H 0.0 **** 0.52
2583 H 27.157496463301786 1.4235318501193035 47.44479027558962 H 0.0 **** 0.52
2584 M 26.984063631841593 2.273733095617402 47.34457752589928 M 0.0 **** -1.04
2585 O 7.259945453530219 43.31801915554258 15.366374775328175 O 0.0 **** 0.0
2586 H 7.204167436346984 43.620325615278276 14.459881939741166 H 0.0 **** 0.52
2587 H 7.512107103708306 44.096018440203736 15.863728540513073 H 0.0 **** 0.52
2588 M 7.285085844006722 43.4563116623259 15.313999638724205 M 0.0 **** -1.04
2589 O 9.38415344953664 9.31977169414057 32.632936379207806 O 0.0 **** 0.0
2590 H 9.954145928687966 9.517481251194857 33.37607074809225 H 0.0 **** 0.52
2591 H 8.604199973935204 8.928304182589663 33.02619764109149 H 0.0 **** 0.52
2592 M 9.357276370830784 9.294968495409416 32.778409285640386 M 0.0 **** -1.04
2593 O 31.94152177541576 35.48307198799604 46.385596577914 O 0.0 **** 0.0
2594 H 31.36340216814205 36.20614155023608 46.14233303170099 H 0.0 **** 0.52
2595 H 31.59708279821525 34.72899949446622 45.90709292599037 H 0.0 **** 0.52
2596 M 31.823422217958278 35.47910320093666 46.29320149294931 M 0.0 **** -1.04
2597 O 31.168950898416938 45.54866595123117 1.304454134969511 O 0.0 **** 0.0
2598 H 31.261141019170122 46.20736059008251 1.99282287440478 H 0.0 **** 0.52
2599 H 31.354727022922102 44.7174459295762 1.7412485424284867 H 0.0 **** 0.52
2600 M 31.204533827066225 45.526581228586934 1.4484893552333773 M 0.0 **** -1.04
2601 O 15.801187834776755 25.14263588016796 28.304096247532865 O 0.0 **** 0.0
2602 H 14.886283508156168 25.142465777829038 28.02270947735692 H 0.0 **** 0.52
2603 H 15.867419675849078 24.40097330504507 28.905576487008123 H 0.0 **** 0.52
2604 M 15.692546570026053 25.047672407871453 28.34507166104824 M 0.0 **** -1.04
2605 O 34.623776039777255 37.14928932789842 3.896740985511137 O 0.0 **** 0.0
2606 H 34.616563489722836 37.2895642564296 2.9499049580994026 H 0.0 **** 0.52
2607 H 34.62301291591193 36.197500819234094 3.9983547381091427 H 0.0 **** 0.52
2608 M 34.62275484744882 37.04540545766439 3.7885418093709546 M 0.0 **** -1.04
2609 O 39.17441629999808 31.58775113768372 22.727275280237528 O 0.0 **** 0.0
2610 H 39.902497825271276 31.4281477471688 23.327818127665076 H 0.0 **** 0.52
2611 H 38.97270358526324 30.72691510174782 22.360528865570878 H 0.0 **** 0.52
2612 M 39.241798644345494 31.457122601940295 22.75720449646153 M 0.0 **** -1.04
2613 O 31.95526882963338 33.95873036883035 38.79117802854412 O 0.0 **** 0.0
2614 H 31.943498259067532 34.816075504900255 39.21667823617234 H 0.0 **** 0.52
2615 H 31.839527749066356 34.151014776509 37.860662546651064 H 0.0 **** 0.52
2616 M 31.938945247510787 34.09309633098775 38.72652944331425 M 0.0 **** -1.04
2617 O 24.84325547708893 15.818324195032517 32.67821959558907 O 0.0 **** 0.0
2618 H 25.231699891994534 14.970885041277128 32.89544386191363 H 0.0 **** 0.52
2619 H 23.964345556552573 15.783296484998061 33.05573640649786 H 0.0 **** 0.52
2620 M 24.7804701785408 15.705357490872473 32.75435391913928 M 0.0 **** -1.04
2621 O 40.85535391874755 0.03757533197926932 4.68502813419411 O 0.0 **** 0.0
2622 H 40.51654222350751 -0.6796344237131677 5.220793882178533 H 0.0 **** 0.52
2623 H 40.302654006960374 0.03517268423550324 3.903525411773125 H 0.0 **** 0.52
2624 M 40.74122872484716 -0.054543831550503796 4.653570880201562 M 0.0 **** -1.04
2625 O 4.266251069706726 32.61300510981814 47.641661854510744 O 0.0 **** 0.0
2626 H 3.458625528928735 32.33800896343266 47.20767185603916 H 0.0 **** 0.52
2627 H 4.91022641833257 32.67097202317809 46.935854453247536 H 0.0 **** 0.52
2628 M 4.245301543815458 32.58522224794697 47.49575300882556 M 0.0 **** -1.04
2629 O 8.57430055231076 41.021261815203914 44.79393731270447 O 0.0 **** 0.0
2630 H 8.699352785851701 41.30837261823214 45.69845826769735 H 0.0 **** 0.52
2631 H 8.144403696800197 40.16940289495692 44.86979907833836 H 0.0 **** 0.52
2632 M 8.535276259830553 40.94896721824233 44.91943877558674 M 0.0 **** -1.04
2633 O 28.242430331669336 3.9615517907562867 14.332831287215111 O 0.0 **** 0.0
2634 H 27.917727692111665 3.5410277737473286 15.129044390228044 H 0.0 **** 0.52
2635 H 28.244745136463237 4.896292014371724 14.538948506880738 H 0.0 **** 0.52
2636 M 28.201160335359994 4.027377302597412 14.461141570791565 M 0.0 **** -1.04
2637 O 15.312018096563067 4.325507325956281 4.27897577413831 O 0.0 **** 0.0
2638 H 16.004359863454592 4.86221860855855 4.664762737430976 H 0.0 **** 0.52
2639 H 14.69413838371321 4.179626170025202 4.995335410519672 H 0.0 **** 0.52
2640 M 15.321550474045434 4.375538055641002 4.420064666240997 M 0.0 **** -1.04
2641 O 18.183783647556577 16.427708344348062 17.80359816465498 O 0.0 **** 0.0
2642 H 17.83472959947514 17.05750241589807 17.17292303393561 H 0.0 **** 0.52
2643 H 19.119941929874578 16.386291842086166 17.608354121311105 H 0.0 **** 0.52
2644 M 18.25893970974032 16.503028077420197 17.697869857896748 M 0.0 **** -1.04
2645 O 3.7903404115315524 47.20430194687601 5.468190173405609 O 0.0 **** 0.0
2646 H 3.039895239617671 47.04710126278647 6.041206639116055 H 0.0 **** 0.52
2647 H 4.301394083540792 46.39629897348633 5.514926643155503 H 0.0 **** 0.52
2648 M 3.759695159894683 47.080743854298476 5.547526696115661 M 0.0 **** -1.04
2649 O 46.899894412414646 6.075991608263536 0.8870786894328576 O 0.0 **** 0.0
2650 H 45.965227642679054 5.885307390200865 0.9662389779017346 H 0.0 **** 0.52
2651 H 47.01849166386001 6.318089854767468 -0.031372174153730725 H 0.0 **** 0.52
2652 M 46.79542724556505 6.0825729517937255 0.7796391711411875 M 0.0 **** -1.04
2653 O 16.607589512151122 41.570891950846175 42.466246110779956 O 0.0 **** 0.0
2654 H 17.532606685102436 41.44285193994847 42.2560621374486 H 0.0 **** 0.52
2655 H 16.59082334843947 41.68379970709262 43.41661324691401 H 0.0 **** 0.52
2656 M 16.72385758633638 41.568954926981235 42.56099880341093 M 0.0 **** -1.04
2657 O 10.405268642407957 28.64005573796086 36.84775921550702 O 0.0 **** 0.0
2658 H 10.790221890080733 28.485241721622927 37.71035495911704 H 0.0 **** 0.52
2659 H 11.156554172133443 28.710801488803664 36.258866832353334 H 0.0 **** 0.52
2660 M 10.550721361234856 28.629293450551557 36.88279668043526 M 0.0 **** -1.04
2661 O 19.888834975259613 39.98677761987154 22.490456848318775 O 0.0 **** 0.0
2662 H 20.772766773157343 39.779981406536066 22.793982039710137 H 0.0 **** 0.52
2663 H 19.587967989476468 40.67775757207008 23.08058804327736 H 0.0 **** 0.52
2664 M 19.963474470085956 40.0487593759986 22.604855798731222 M 0.0 **** -1.04
2665 O 18.906262461131632 12.617241351427722 34.257966895308996 O 0.0 **** 0.0
2666 H 18.46954648086536 13.190483782674846 34.88796837784595 H 0.0 **** 0.52
2667 H 18.757320950845994 13.035178966331687 33.40980701906218 H 0.0 **** 0.52
2668 M 18.831291019902054 12.744124542447974 34.230039734059204 M 0.0 **** -1.04
2669 O 25.722285609724658 25.713316768481533 14.339306675694388 O 0.0 **** 0.0
2670 H 26.09307681261476 24.84735099903793 14.50914928252017 H 0.0 **** 0.52
2671 H 24.80075961656854 25.54536891594313 14.142298919635124 H 0.0 **** 0.52
2672 M 25.65178454334867 25.58096226991087 14.335828824927091 M 0.0 **** -1.04
2673 O 15.855831211982299 7.430758657737801 40.427180189042666 O 0.0 **** 0.0
2674 H 15.987635015174689 8.004202274418294 39.672184763719834 H 0.0 **** 0.52
2675 H 16.32086402008487 6.625306817807864 40.20086146535481 H 0.0 **** 0.52
2676 M 15.932234031440522 7.401058134553042 40.30155955226516 M 0.0 **** -1.04
2677 O 45.28534070209618 22.03971654738179 5.14568252420645 O 0.0 **** 0.0
2678 H 45.6950813726002 21.463059172712164 4.500850470543249 H 0.0 **** 0.52
2679 H 45.869655876766885 22.79615396846213 5.196749902329167 H 0.0 **** 0.52
2680 M 45.41259211155769 22.062730469262053 5.069673358504318 M 0.0 **** -1.04
2681 O 33.76184437627867 23.600413975277924 34.340944313470914 O 0.0 **** 0.0
2682 H 33.37327393667104 23.799679696152808 33.48916023606708 H 0.0 **** 0.52
2683 H 34.36951435865309 24.3221743004119 34.50227328576639 H 0.0 **** 0.52
2684 M 33.78989198378444 23.718316221965488 34.252557655036306 M 0.0 **** -1.04
2685 O 35.223300595297026 2.7283248018861896 1.6410584525930625 O 0.0 **** 0.0
2686 H 35.118773742780355 3.3226640826016642 0.8980486152270593 H 0.0 **** 0.52
2687 H 35.493602982951884 1.8983287672840525 1.2482841428248652 H 0.0 **** 0.52
2688 M 35.24452140928904 2.698157613668708 1.4956636166958768 M 0.0 **** -1.04
2689 O 21.049900288141274 44.92016994312273 2.0835717649570427 O 0.0 **** 0.0
2690 H 21.033272600932378 43.97357215154856 1.942490567699103 H 0.0 **** 0.52
2691 H 20.430867136245155 45.06713606869142 2.798713427278315 H 0.0 **** 0.52
2692 M 20.968528540569935 44.8178068729211 2.1570583605721723 M 0.0 **** -1.04
2693 O 2.3644911989522868 16.328482135574365 20.253550331691113 O 0.0 **** 0.0
2694 H 2.591860241834759 17.07544948273815 19.699860626374004 H 0.0 **** 0.52
2695 H 1.7877401239255022 16.693816808083696 20.92445805578011 H 0.0 **** 0.52
2696 M 2.319765352597166 16.470870997807722 20.268555686091837 M 0.0 **** -1.04
2697 O 45.17181662729942 17.592397435873142 48.56837828007917 O 0.0 **** 0.0
2698 H 45.613944546647474 16.803979923684764 48.88326046517127 H 0.0 **** 0.52
2699 H 44.51044516799491 17.26863554794054 47.956827376650466 H 0.0 **** 0.52
2700 M 45.14375072765723 17.450024035725786 48.530401254474896 M 0.0 **** -1.04
2701 O 25.230011277870414 22.996935266874832 26.892752389794932 O 0.0 **** 0.0
2702 H 24.531264068493606 23.33513101522273 26.33274798802778 H 0.0 **** 0.52
2703 H 25.179060957929707 23.52818472268881 27.68736271856139 H 0.0 **** 0.52
2704 M 25.134040416766233 23.108234993965688 26.922784864192217 M 0.0 **** -1.04
2705 O 39.989195628334464 27.08704556658419 17.134300553713427 O 0.0 **** 0.0
2706 H 40.041968481781524 27.96288545111728 16.75174424986959 H 0.0 **** 0.52
2707 H 40.61801190896166 27.102026160965377 17.855822781867 H 0.0 **** 0.52
2708 M 40.07644715991014 27.201082436641265 17.17769209489686 M 0.0 **** -1.04
2709 O 26.344349185279782 26.401481042490865 27.687639167250147 O 0.0 **** 0.0
2710 H 25.79713250466668 25.807038465493868 28.200885122252927 H 0.0 **** 0.52
2711 H 26.931698222105535 26.80112263402265 28.329149974273363 H 0.0 **** 0.52
2712 M 26.349486747981143 26.37654353807391 27.83546250789012 M 0.0 **** -1.04
2713 O 45.381097190502366 23.547705165872202 19.268954209554852 O 0.0 **** 0.0
2714 H 45.897841676863706 22.962719210161275 18.71488282437847 H 0.0 **** 0.52
2715 H 46.029501000697465 24.010636269944502 19.799516708234357 H 0.0 **** 0.52
2716 M 45.530251008561805 23.532080959267514 19.265944928699 M 0.0 **** -1.04
2717 O 32.076479874365894 19.204261538784365 37.99749859518959 O 0.0 **** 0.0
2718 H 32.17368028532169 20.105897633289636 37.69117680121329 H 0.0 **** 0.52
2719 H 31.399372945556983 19.25177024676349 38.67240556801151 H 0.0 **** 0.52
2720 M 32.002244313829486 19.32576358337574 38.04468277175282 M 0.0 **** -1.04
2721 O 22.37791855268256 26.28805453277067 4.654652902146353 O 0.0 **** 0.0
2722 H 21.653542918673992 26.907710309085076 4.741460112351831 H 0.0 **** 0.52
2723 H 23.10587311640242 26.814580675000222 4.324376751949188 H 0.0 **** 0.52
2724 M 22.378376596029923 26.43478038523243 4.623486341176985 M 0.0 **** -1.04
2725 O 26.560738171263157 13.977706177575998 11.29783887121694 O 0.0 **** 0.0
2726 H 25.83744905166627 13.384904225171455 11.50196658089476 H 0.0 **** 0.52
2727 H 27.301954678874882 13.632116944455024 11.795227234112494 H 0.0 **** 0.52
2728 M 26.56303241128998 13.857580179864524 11.387641616973973 M 0.0 **** -1.04
2729 O 5.10294281958479 16.882757636382347 48.15472152536598 O 0.0 **** 0.0
2730 H 5.082623937421751 17.279423903209924 47.283818801832844 H 0.0 **** 0.52
2731 H 4.182748131249561 16.733573712035117 48.372011273455236 H 0.0 **** 0.52
2732 M 4.982544999324837 16.914438334727688 48.07105050332729 M 0.0 **** -1.04
2733 O 12.634579559144308 25.803758501106884 37.55447433168955 O 0.0 **** 0.0
2734 H 12.766963137143733 26.51015943985875 38.18669373437782 H 0.0 **** 0.52
2735 H 12.100649250809237 25.16088593834441 38.02123019716356 H 0.0 **** 0.52
2736 M 12.583176056127215 25.811891160117103 37.69515779323699 M 0.0 **** -1.04
2737 O 37.606220975341145 0.0742672480097177 16.98295202852499 O 0.0 **** 0.0
2738 H 36.91501479769528 -0.47317013220126114 16.61042720445098 H 0.0 **** 0.52
2739 H 37.14356927950156 0.8257340075772426 17.353733085502416 H 0.0 **** 0.52
2740 M 37.45851296678104 0.10038479301896121 16.98272828556734 M 0.0 **** -1.04
2741 O 31.394829158344326 12.054441435261765 28.225769540511546 O 0.0 **** 0.0
2742 H 31.072204909248462 11.15810525127499 28.132365559618712 H 0.0 **** 0.52
2743 H 31.875999867230217 12.051308505903407 29.053231827941104 H 0.0 **** 0.52
2744 M 31.415124760622167 11.939298128764115 28.319738002476054 M 0.0 **** -1.04
2745 O 24.675926103412024 47.74790245624453 31.12494357352237 O 0.0 **** 0.0
2746 H 25.44048071661551 47.729352458432736 30.54932028697745 H 0.0 **** 0.52
2747 H 23.926831386077453 47.74807275742939 30.52905349400329 H 0.0 **** 0.52
2748 M 24.677905760417232 47.74554937661904 30.97497483013762 M 0.0 **** -1.04
2749 O 34.30395114216016 28.428928131895248 26.563664927320797 O 0.0 **** 0.0
2750 H 34.448203531720836 27.92227956514901 25.764460848201118 H 0.0 **** 0.52
2751 H 33.53528035538188 28.966113170634955 26.371812908133144 H 0.0 **** 0.52
2752 M 34.22401758587161 28.4328371532802 26.43679763373853 M 0.0 **** -1.04
2753 O 13.08125908200205 16.917680143190115 6.448465697286835 O 0.0 **** 0.0
2754 H 13.610057901439108 17.03736675392488 5.659620078303533 H 0.0 **** 0.52
2755 H 13.668136180897429 17.149449324420843 7.168247573275053 H 0.0 **** 0.52
2756 M 13.224079987946244 16.962671244500882 6.43962466651368 M 0.0 **** -1.04
2757 O 23.803609332521482 43.85238752208923 49.96128914327879 O 0.0 **** 0.0
2758 H 24.24722056348007 43.49412521936788 49.19246918649193 H 0.0 **** 0.52
2759 H 22.96115072348935 44.16273812149612 49.62936157096068 H 0.0 **** 0.52
2760 M 23.75255208785408 43.84625472942892 49.82037984711226 M 0.0 **** -1.04
2761 O 48.755904763294325 47.22855497717605 46.843782719968495 O 0.0 **** 0.0
2762 H 49.358240808190786 46.4850695312587 46.81828322447643 H 0.0 **** 0.52
2763 H 49.11872774993159 47.80850805052806 47.51329273348507 H 0.0 **** 0.52
2764 M 48.87945712832281 47.2076209531413 46.92622435940269 M 0.0 **** -1.04
2765 O 24.20491968419144 46.612013007305336 23.696572795434967 O 0.0 **** 0.0
2766 H 25.098340697012503 46.30518316218908 23.851108418682973 H 0.0 **** 0.52
2767 H 23.651281588620286 45.97860588003641 24.153201297775976 H 0.0 **** 0.52
2768 M 24.248416202080467 46.491650661788725 23.77480966625856 M 0.0 **** -1.04
2769 O 5.345405519103842 43.61529530969589 45.90587837397301 O 0.0 **** 0.0
2770 H 5.864634736533837 44.20732707468366 46.450053712963786 H 0.0 **** 0.52
2771 H 5.773541542176652 43.638414789478034 45.050077687548175 H 0.0 **** 0.52
2772 M 5.4666808027031735 43.69404249834768 45.86598625553658 M 0.0 **** -1.04
2773 O 25.46592775593048 41.097579682437384 33.808147606808475 O 0.0 **** 0.0
2774 H 26.232568588032684 41.052153548602455 33.236809823139474 H 0.0 **** 0.52
2775 H 24.919119279666063 41.781821748636204 33.42208764181896 H 0.0 **** 0.52
2776 M 25.49406959588591 41.17935577827451 33.68558855335844 M 0.0 **** -1.04
2777 O 13.715552264401396 40.69537968101059 10.767409320419517 O 0.0 **** 0.0
2778 H 14.380717050981042 40.09384590591937 10.432832336811053 H 0.0 **** 0.52
2779 H 14.215099106875563 41.4056709142854 11.170110798577497 H 0.0 **** 0.52
2780 M 13.864649985002606 40.709302708836546 10.776130294830082 M 0.0 **** -1.04
2781 O 1.8370306366999927 41.59125314165165 12.855942204169416 O 0.0 **** 0.0
2782 H 1.406117463922378 41.54748542563909 12.002345219465766 H 0.0 **** 0.52
2783 H 1.3068850726175398 42.20770244483986 13.361080187557974 H 0.0 **** 0.52
2784 M 1.7140025625671171 41.664563799672834 12.811335252618498 M 0.0 **** -1.04
2785 O 20.910492663645208 31.10410743568648 1.6739851455437815 O 0.0 **** 0.0
2786 H 20.956807429780223 32.05977988723645 1.6461762740986217 H 0.0 **** 0.52
2787 H 21.681515853713904 30.840990550149332 2.17649835752259 H 0.0 **** 0.52
2788 M 21.01512142605231 31.192763540401305 1.7347533408598395 M 0.0 **** -1.04
2789 O 24.875841324571716 32.7113862038979 34.216067251720915 O 0.0 **** 0.0
2790 H 24.55459442878257 32.38124503684945 35.05513632026058 H 0.0 **** 0.52
2791 H 24.716139422830583 31.99652139379585 33.59987477652236 H 0.0 **** 0.52
2792 M 24.81427326034771 32.57761237135635 34.2445978664332 M 0.0 **** -1.04
2793 O 28.092047057101265 37.73992205512373 12.675187652235437 O 0.0 **** 0.0
2794 H 28.302951237926276 38.175810479030325 11.849507402976421 H 0.0 **** 0.52
2795 H 27.863228258318795 36.84541793618069 12.422735255484383 H 0.0 **** 0.52
2796 M 28.089753380349002 37.681213048681734 12.537173199769164 M 0.0 **** -1.04
2797 O 48.11988989360823 8.892164463744882 40.53520633751767 O 0.0 **** 0.0
2798 H 47.546352083263024 8.290542216694151 41.00989954843521 H 0.0 **** 0.52
2799 H 48.106985489121044 9.696097532535129 41.054585062844836 H 0.0 **** 0.52
2800 M 48.044817418289675 8.918062308841955 40.66245989241439 M 0.0 **** -1.04
2801 O 10.849620814745803 25.418296807036015 31.256798923555678 O 0.0 **** 0.0
2802 H 9.915413226145962 25.217156817192077 31.311830674346083 H 0.0 **** 0.52
2803 H 10.930641372154634 25.971504976093883 30.4798660678115 H 0.0 **** 0.52
2804 M 10.74040243340597 25.463365876436782 31.164386795072147 M 0.0 **** -1.04
2805 O 33.635844883629225 2.089667086656249 42.84013847460209 O 0.0 **** 0.0
2806 H 34.34165775470794 2.39285984874585 43.411217582359626 H 0.0 **** 0.52
2807 H 33.23951603920255 2.8924619343704023 42.501506045517004 H 0.0 **** 0.52
2808 M 33.675462302636284 2.231246778416576 42.86989436199048 M 0.0 **** -1.04
2809 O 5.4097800695304885 21.575225581225173 25.90184156340275 O 0.0 **** 0.0
2810 H 5.2044066876471815 22.483071259584737 26.12514884310181 H 0.0 **** 0.52
2811 H 5.3302065692961715 21.538647489442706 24.94865780682801 H 0.0 **** 0.52
2812 M 5.37330306210039 21.686758927369695 25.808408251025693 M 0.0 **** -1.04
2813 O 39.23589064070286 49.64777004139091 34.45800219187976 O 0.0 **** 0.0
2814 H 39.871613199918414 49.04719908491802 34.84710445806345 H 0.0 **** 0.52
2815 H 38.73053910130793 49.97692020069786 35.20131233469297 H 0.0 **** 0.52
2816 M 39.25257930090568 49.6130252885497 34.60296492730382 M 0.0 **** -1.04
2817 O 1.0110455211870217 34.581190505390154 20.2242894395444 O 0.0 **** 0.0
2818 H 1.8363266449045454 34.38604528685059 19.780377483965896 H 0.0 **** 0.52
2819 H 1.2639782344955677 34.774610188658905 21.12697611916 H 0.0 **** 0.52
2820 M 1.1490706057231748 34.58096948886796 20.28301806148874 M 0.0 **** -1.04
2821 O 48.857103802081355 41.70095380481724 30.14500870660997 O 0.0 **** 0.0
2822 H 48.40068216829773 41.74064915812167 29.304573050618675 H 0.0 **** 0.52
2823 H 48.22241316220615 42.03515360423623 30.778811904271766 H 0.0 **** 0.52
2824 M 48.71742749686567 41.748817177740484 30.118557594427134 M 0.0 **** -1.04
2825 O 14.701402920086288 14.693984237306546 16.82243660806229 O 0.0 **** 0.0
2826 H 14.143299424376117 14.254927673766613 17.46429151809408 H 0.0 **** 0.52
2827 H 14.232070106485597 15.500169893022658 16.607912712725266 H 0.0 **** 0.52
2828 M 14.569877946164285 14.740981472986212 16.877140870677692 M 0.0 **** -1.04
2829 O 42.20707236230372 34.64911430656581 16.646156848656585 O 0.0 **** 0.0
2830 H 42.136035706012954 33.69797874759926 16.726921845476195 H 0.0 **** 0.52
2831 H 41.39493267127664 34.98359971765648 17.02665344980146 H 0.0 **** 0.52
2832 M 42.09401494084049 34.57017528078401 16.705204125966393 M 0.0 **** -1.04
2833 O 38.32119004448871 31.75606105302554 30.3254862123176 O 0.0 **** 0.0
2834 H 39.24159506362563 31.767708211959157 30.062907044019838 H 0.0 **** 0.52
2835 H 37.85489865071737 31.439432306579597 29.551828352612503 H 0.0 **** 0.52
2836 M 38.37932201228329 31.71701946109022 30.192835558864715 M 0.0 **** -1.04
2837 O 17.38535550466841 16.625296455424092 13.223883248144553 O 0.0 **** 0.0
2838 H 17.287107528808047 15.802567725154175 12.74461990554586 H 0.0 **** 0.52
2839 H 17.257202173833186 17.30516099278943 12.562377387098024 H 0.0 **** 0.52
2840 M 17.35637311128811 16.607007346183533 13.077850100537106 M 0.0 **** -1.04
2841 O 0.6013044654108504 21.59076412945431 17.90832153373141 O 0.0 **** 0.0
2842 H 0.9869182785587097 21.15101057800516 17.150597337915954 H 0.0 **** 0.52
2843 H 1.2673152790778865 22.22003459225253 18.1852257457507 H 0.0 **** 0.52
2844 M 0.7359253950833338 21.61502471280556 17.846770821513218 M 0.0 **** -1.04
2845 O 37.81978534270855 11.814244979448162 31.208062357670247 O 0.0 **** 0.0
2846 H 37.268078671291235 12.587080852108386 31.328783040739165 H 0.0 **** 0.52
2847 H 37.62143652814413 11.257764787973493 31.961200422284385 H 0.0 **** 0.52
2848 M 37.723769468782784 11.84194125646178 31.31992701055876 M 0.0 **** -1.04
2849 O 28.42065604823139 41.38438206548588 46.945893996142026 O 0.0 **** 0.0
2850 H 29.21929034587083 41.80657160965593 46.62940122736994 H 0.0 **** 0.52
2851 H 28.102212357541678 41.962407105303335 47.639225852083705 H 0.0 **** 0.52
2852 M 28.48212646590135 41.512422777239436 46.99413365514931 M 0.0 **** -1.04
2853 O 35.247327122910384 1.403857172681807 39.47771069436561 O 0.0 **** 0.0
2854 H 35.690328941735444 0.5568526113197723 39.528306221446975 H 0.0 **** 0.52
2855 H 34.333903095364185 1.2098971311456008 39.68810386574145 H 0.0 **** 0.52
2856 M 35.18710683623461 1.2706005855062856 39.51112047928031 M 0.0 **** -1.04
2857 O 1.2428394007297552 21.347535520291864 38.46231918008594 O 0.0 **** 0.0
2858 H 1.4342044817978299 21.317086557575237 39.39969912923536 H 0.0 **** 0.52
2859 H 1.943141691087836 21.884632477562253 38.09173493687099 H 0.0 **** 0.52
2860 M 1.356984326084846 21.412392842138626 38.53487587607293 M 0.0 **** -1.04
2861 O 26.773397508967054 13.748715413166444 18.552413940452865 O 0.0 **** 0.0
2862 H 27.39037464861084 13.6877001631781 19.2816913434916 H 0.0 **** 0.52
2863 H 26.10318201049577 14.361149656441306 18.855670264953034 H 0.0 **** 0.52
2864 M 26.766582020208443 13.819304238196182 18.684591255994917 M 0.0 **** -1.04
2865 O 49.23284136500001 47.73653718555503 5.2759689475203215 O 0.0 **** 0.0
2866 H 48.480774155170984 47.93594206287337 5.83351810675839 H 0.0 **** 0.52
2867 H 49.021062239938125 46.890856952391836 4.880743054068851 H 0.0 **** 0.52
2868 M 49.109456922080476 47.65380574873462 5.296748587774126 M 0.0 **** -1.04
2869 O 48.930263599419476 17.585032798669047 35.272176672748856 O 0.0 **** 0.0
2870 H 48.85061046883633 18.530385260385376 35.14492898525259 H 0.0 **** 0.52
2871 H 48.0290558588458 17.280368886180334 35.37816359007891 H 0.0 **** 0.52
2872 M 48.80470090110457 17.66704918470058 35.26945576183431 M 0.0 **** -1.04
2873 O 24.854252900021294 31.259917205774634 27.442268042774348 O 0.0 **** 0.0
2874 H 24.884692188918493 30.312934650402628 27.306159565437895 H 0.0 **** 0.52
2875 H 25.708912456646715 31.47639626999458 27.814991706628184 H 0.0 **** 0.52
2876 M 24.967556923303533 31.166403716493864 27.47255699017433 M 0.0 **** -1.04
2877 O 27.98216929134565 24.946798520268334 17.02536646546253 O 0.0 **** 0.0
2878 H 28.216714545226733 24.164266325538016 17.52422533021943 H 0.0 **** 0.52
2879 H 27.07174996011804 24.802891558620715 16.76718750320463 H 0.0 **** 0.52
2880 M 27.895648470716328 24.828202135206883 17.056177329731298 M 0.0 **** -1.04
2881 O 17.892537471075187 4.992093221470938 27.612975252289985 O 0.0 **** 0.0
2882 H 18.043325082047964 5.615119358067595 26.90210980291652 H 0.0 **** 0.52
2883 H 18.027139662025615 5.502139109813072 28.41170177973791 H 0.0 **** 0.52
2884 M 17.929071289376495 5.137140303315348 27.624222981604472 M 0.0 **** -1.04
2885 O 29.509720003690788 35.06880749865737 18.688322810011794 O 0.0 **** 0.0
2886 H 29.575843860993913 34.871550640361114 19.622638657185547 H 0.0 **** 0.52
2887 H 29.83293202305382 34.27995527477842 18.253035051808013 H 0.0 **** 0.52
2888 M 29.55955987219584 34.94257261806752 18.752204235511545 M 0.0 **** -1.04
2889 O 45.17605391890381 30.642209351304984 33.70166160634551 O 0.0 **** 0.0
2890 H 44.68727798981429 30.203333798364863 33.00544615785597 H 0.0 **** 0.52
2891 H 45.82597971156708 29.99766466851007 33.98163862971375 H 0.0 **** 0.52
2892 M 45.19668349445768 30.503518169717477 33.64837725064579 M 0.0 **** -1.04
2893 O 16.852174871196876 3.737108663837489 24.611568712379974 O 0.0 **** 0.0
2894 H 17.097131466636355 3.396637324577874 25.471978928167143 H 0.0 **** 0.52
2895 H 15.983509880065933 4.117305827459518 24.74233619959181 H 0.0 **** 0.52
2896 M 16.772332902963313 3.7421942022115786 24.738451675905605 M 0.0 **** -1.04
2897 O 1.09220252116058 28.403590800560053 35.25005450713102 O 0.0 **** 0.0
2898 H 1.427194175060265 28.788088193586674 34.44001102667757 H 0.0 **** 0.52
2899 H 0.4094905990824671 29.00921084744546 35.53877345471289 H 0.0 **** 0.52
2900 M 1.0476903280161949 28.530338256318288 35.183318584740704 M 0.0 **** -1.04
2901 O 43.77238398090251 7.450966091905769 14.056471571772335 O 0.0 **** 0.0
2902 H 44.484436505931406 7.066579177706771 14.56779966700384 H 0.0 **** 0.52
2903 H 42.985399171275866 7.002611292225829 14.366087235766273 H 0.0 **** 0.52
2904 M 43.76279164843659 7.344364821642692 14.161562979704414 M 0.0 **** -1.04
2905 O 16.192823983746358 48.30513595781895 38.86662480061432 O 0.0 **** 0.0
2906 H 15.657135626310492 48.39918632828909 38.07895642723172 H 0.0 **** 0.52
2907 H 15.57180351314826 48.05510409903309 39.55076470870717 H 0.0 **** 0.52
2908 M 16.04475059926835 48.28516890413038 38.85337147917297 M 0.0 **** -1.04
2909 O 20.16457504114824 46.18326952304108 12.994947275552294 O 0.0 **** 0.0
2910 H 19.92170113047932 47.09440532082314 12.830411002230845 H 0.0 **** 0.52
2911 H 21.013931455081163 46.080054809552344 12.565797504065081 H 0.0 **** 0.52
2912 M 20.24221233986995 46.28669310520861 12.918947434665563 M 0.0 **** -1.04
2913 O 16.436323853192036 25.14662703273997 39.18849718130206 O 0.0 **** 0.0
2914 H 16.726674509418583 25.720536201328486 39.897406923051996 H 0.0 **** 0.52
2915 H 16.983212723343517 25.39164821773224 38.44210146029978 H 0.0 **** 0.52
2916 M 16.54350076800567 25.251460599043753 39.18369880532031 M 0.0 **** -1.04
2917 O 19.928498354153266 3.985347534854121 24.112536321769937 O 0.0 **** 0.0
2918 H 19.761392022717068 3.0518449236579954 23.982627586216186 H 0.0 **** 0.52
2919 H 20.032173394549634 4.0811207418235895 25.05927205685382 H 0.0 **** 0.52
2920 M 19.920378339277004 3.878107605049287 24.217100320392166 M 0.0 **** -1.04
2921 O 34.90696339340435 0.986332071016804 14.071482789161166 O 0.0 **** 0.0
2922 H 35.41353607543117 0.7466839806940868 13.295479906075428 H 0.0 **** 0.52
2923 H 35.14955373492512 1.8958784751199929 14.244982708159235 H 0.0 **** 0.52
2924 M 35.00286544635278 1.072086748723983 13.994355262553569 M 0.0 **** -1.04
2925 O 14.074045269658589 8.43467526362679 37.139286471518574 O 0.0 **** 0.0
2926 H 13.575023697899821 7.653746733681838 37.378780084582935 H 0.0 **** 0.52
2927 H 13.664788289323823 9.142843015495977 37.63651353069979 H 0.0 **** 0.52
2928 M 13.957773730351725 8.425360412776158 37.233595732499914 M 0.0 **** -1.04
2929 O 10.841879443575106 6.728005953329706 16.874837785289436 O 0.0 **** 0.0
2930 H 9.91806598110372 6.7666641853731875 16.627242169009378 H 0.0 **** 0.52
2931 H 10.91545103726153 7.323004411480774 17.621023227336188 H 0.0 **** 0.52
2932 M 10.733037831418747 6.809122516986257 16.938664285810496 M 0.0 **** -1.04
2933 O 25.468182354546624 9.09814792845332 38.786112357977196 O 0.0 **** 0.0
2934 H 24.970388579257914 9.73084359316336 39.303921600277 H 0.0 **** 0.52
2935 H 25.62326290026642 8.367336556544053 39.384522052507215 H 0.0 **** 0.52
2936 M 25.424310960621703 9.085587668486037 38.92900279637544 M 0.0 **** -1.04
2937 O 16.204218115886324 26.018225446218324 7.460391628109737 O 0.0 **** 0.0
2938 H 15.407708019163463 26.543655969424975 7.5360441264366225 H 0.0 **** 0.52
2939 H 16.48799417798601 25.881074122744774 8.364210734429374 H 0.0 **** 0.52
2940 M 16.13858073036031 26.06792940407745 7.585776350326865 M 0.0 **** -1.04
2941 O 31.812861461767966 46.084812758620174 21.095627489088628 O 0.0 **** 0.0
2942 H 32.152224658095854 46.747407758675266 21.6973162192852 H 0.0 **** 0.52
2943 H 30.89450446221333 45.98189633334349 21.345143065750094 H 0.0 **** 0.52
2944 M 31.738742628718867 46.15645951210436 21.20459233469319 M 0.0 **** -1.04
2945 O 2.3834000005950053 45.74191524374088 21.5602290354663 O 0.0 **** 0.0
2946 H 1.78170993541187 45.02668181193938 21.766723442787296 H 0.0 **** 0.52
2947 H 2.3521133931156113 45.81399344939679 20.606260889413022 H 0.0 **** 0.52
2948 M 2.302370897659017 45.659583152437754 21.464542772977605 M 0.0 **** -1.04
2949 O 25.237784912772952 15.150863353448072 24.20309021303901 O 0.0 **** 0.0
2950 H 24.566107741862638 14.91818976505118 24.844136482356202 H 0.0 **** 0.52
2951 H 25.402276467392 16.081524319088327 24.354884545537384 H 0.0 **** 0.52
2952 M 25.17285870700023 15.240214053064811 24.30458379728924 M 0.0 **** -1.04
2953 O 29.464248500587985 41.804122225754256 31.39736749276791 O 0.0 **** 0.0
2954 H 29.5758015949374 42.716509620861316 31.130284206216032 H 0.0 **** 0.52
2955 H 29.258983255697494 41.33988395812159 30.585841018851628 H 0.0 **** 0.52
2956 M 29.45225175853118 41.86149148941065 31.259292443097337 M 0.0 **** -1.04
2957 O 5.31983721058841 48.151629050461004 29.631364898809267 O 0.0 **** 0.0
2958 H 5.826548205834686 47.6629906617208 30.279983292874622 H 0.0 **** 0.52
2959 H 5.103249560055477 47.505231740321236 28.959435964972723 H 0.0 **** 0.52
2960 M 5.356976849661673 48.0063301114107 29.628381340134695 M 0.0 **** -1.04
2961 O 18.693836717755715 32.7577218633001 26.929701550673443 O 0.0 **** 0.0
2962 H 17.847098397310162 33.183906191342125 27.06248037468771 H 0.0 **** 0.52
2963 H 18.598587148560284 32.28753012379577 26.10140437532442 H 0.0 **** 0.52
2964 M 18.573250478888866 32.75208838711197 26.84066633719027 M 0.0 **** -1.04
2965 O 38.98495792699046 39.582800889089995 29.86215580085502 O 0.0 **** 0.0
2966 H 38.20030752761803 39.048369824900135 29.739941999206515 H 0.0 **** 0.52
2967 H 38.83512979617743 40.04387355128341 30.68749953143324 H 0.0 **** 0.52
2968 M 38.86533273180594 39.573410407482044 29.952164998041933 M 0.0 **** -1.04
2969 O 30.893097361444482 14.325643982455242 0.15054319388925627 O 0.0 **** 0.0
2970 H 30.388196238888995 13.668174390412426 -0.32803496725799164 H 0.0 **** 0.52
2971 H 30.292063108082186 14.647577136230083 0.8223657233497009 H 0.0 **** 0.52
2972 M 30.751523368306422 14.28269107691935 0.17528151642666737 M 0.0 **** -1.04
2973 O 26.790616476900148 20.725082035914202 45.75986154108686 O 0.0 **** 0.0
2974 H 27.330262493154038 20.454562682443303 45.01701000888596 H 0.0 **** 0.52
2975 H 27.319512843388267 20.515485092102313 46.529644528240134 H 0.0 **** 0.52
2976 M 26.927403686598065 20.6636205313043 45.76330966697653 M 0.0 **** -1.04
2977 O 45.85695594875353 20.665973563416884 26.10088978245044 O 0.0 **** 0.0
2978 H 45.302551798368086 19.960415414510507 25.76764448094295 H 0.0 **** 0.52
2979 H 46.45555518776204 20.861661785617073 25.380046130697032 H 0.0 **** 0.52
2980 M 45.862613985245154 20.600704399761568 25.965953152657836 M 0.0 **** -1.04
2981 O 47.6115995232247 19.086548432210428 32.540455173557 O 0.0 **** 0.0
2982 H 47.05940886715874 19.64756681637221 33.0850407153962 H 0.0 **** 0.52
2983 H 48.22719213787122 19.688700287352496 32.1224996378478 H 0.0 **** 0.52
2984 M 47.61971604502807 19.23544887750731 32.55666538195213 M 0.0 **** -1.04
2985 O 28.167027592351467 1.3123111956098283 44.122254352168355 O 0.0 **** 0.0
2986 H 27.331205669224467 1.7787650037128127 44.12947760768959 H 0.0 **** 0.52
2987 H 28.528368319260373 1.4537562812133495 44.997271038531174 H 0.0 **** 0.52
2988 M 28.106288005979913 1.390129551468915 44.235191619276236 M 0.0 **** -1.04
2989 O 9.421005249170435 16.532735565881737 3.416958396493598 O 0.0 **** 0.0
2990 H 9.713688065788915 17.167225292364115 4.0711663632737185 H 0.0 **** 0.52
2991 H 8.468278752375278 16.516385718051513 3.5079122403175376 H 0.0 **** 0.52
2992 M 9.336511390964676 16.61186526060293 3.512348596508261 M 0.0 **** -1.04
2993 O 1.681553294081283 22.083853621242277 47.840080022180004 O 0.0 **** 0.0
2994 H 1.6318635230794527 21.147954940863794 48.03464275534655 H 0.0 **** 0.52
2995 H 2.6182363564426083 22.280867813403134 47.84630393817017 H 0.0 **** 0.52
2996 M 1.7950999401366872 21.989266873709855 47.86578266622344 M 0.0 **** -1.04
2997 O 4.634675525636425 6.117164649730888 25.730293452160964 O 0.0 **** 0.0
2998 H 4.014195365749963 6.671660746393165 25.257252626408672 H 0.0 **** 0.52
2999 H 5.101443736743775 6.7194290634913605 26.309631476424194 H 0.0 **** 0.52
3000 M 4.614998266500322 6.265244758588847 25.74390031203113 M 0.0 **** -1.04
3001 O 22.133297157020856 6.792540794126048 43.009113073066786 O 0.0 **** 0.0
3002 H 21.22328406434993 7.025843949212031 43.19261987012907 H 0.0 **** 0.52
3003 H 22.597180928043866 7.629675233457328 42.99339750633737 H 0.0 **** 0.52
3004 M 22.076187413702783 6.929570797642512 43.03059242539439 M 0.0 **** -1.04
3005 O 6.075381368917043 38.02171258516202 23.200667712602147 O 0.0 **** 0.0
3006 H 6.638102010483635 37.7740039583764 23.93429811831071 H 0.0 **** 0.52
3007 H 6.612416003963716 38.61559083661592 22.6761391375878 H 0.0 **** 0.52
3008 M 6.2161640110845156 38.066026462646775 23.227435464480475 M 0.0 **** -1.04
3009 O 46.193807579718225 30.089444474347154 49.867395703639474 O 0.0 **** 0.0
3010 H 45.36174898972632 30.240101618270405 50.315959850282866 H 0.0 **** 0.52
3011 H 45.9846379554825 29.457543753785377 49.179515533851934 H 0.0 **** 0.52
3012 M 46.06051722064768 30.027839505528327 49.83676101848258 M 0.0 **** -1.04
3013 O 22.519663636007152 16.770671021366006 20.29829951320528 O 0.0 **** 0.0
3014 H 22.083029600856563 17.61022198877697 20.44228909202573 H 0.0 **** 0.52
3015 H 21.81791196868197 16.12223149539063 20.35575010663672 H 0.0 **** 0.52
3016 M 22.37393574840516 16.795135661511168 20.324086649681433 M 0.0 **** -1.04
3017 O 44.278905937053416 25.942416657800493 18.592088882097677 O 0.0 **** 0.0
3018 H 44.57792151149174 25.060356460493665 18.812966430778967 H 0.0 **** 0.52
3019 H 45.042376517316285 26.362477413771984 18.195994950177713 H 0.0 **** 0.52
3020 M 44.414917718917565 25.883275451178747 18.569659111825437 M 0.0 **** -1.04
3021 O 42.07123074156794 46.11640408747644 10.789475562159446 O 0.0 **** 0.0
3022 H 41.37718694907002 46.70121457500976 10.485290900870353 H 0.0 **** 0.52
3023 H 41.86293612599169 45.27031557092205 10.393272518957886 H 0.0 **** 0.52
3024 M 41.95572023000192 46.082956727261774 10.699816820536329 M 0.0 **** -1.04
3025 O 21.124802615922636 39.86555579398736 44.354323766624475 O 0.0 **** 0.0
3026 H 21.05177060276553 40.62978636472655 44.92602797201503 H 0.0 **** 0.52
3027 H 21.825181974977138 40.090154237673346 43.74174542905972 H 0.0 **** 0.52
3028 M 21.20511135843955 39.99213787727174 44.34909099625406 M 0.0 **** -1.04
3029 O 34.97784878614671 43.19498084737344 1.9789433936569978 O 0.0 **** 0.0
3030 H 34.77443343460184 42.826410624334684 1.1192873533070156 H 0.0 **** 0.52
3031 H 34.17307779598134 43.082480688462255 2.484825909673667 H 0.0 **** 0.52
3032 M 34.84878828096854 43.133397505887956 1.9336555446948438 M 0.0 **** -1.04
3033 O 31.537661690175796 34.10537491586156 48.7842852685206 O 0.0 **** 0.0
3034 H 31.97429764561744 34.546127105713076 49.51319952137743 H 0.0 **** 0.52
3035 H 31.7639228734122 34.630059253484966 48.016339383044716 H 0.0 **** 0.52
3036 M 31.622520774256188 34.22896308389404 48.7792883513289 M 0.0 **** -1.04
3037 O 13.951865119476196 26.033049749272045 40.8252884758613 O 0.0 **** 0.0
3038 H 14.265324672444581 25.132410711359814 40.90787141465323 H 0.0 **** 0.52
3039 H 13.027089643074365 25.988530134500586 41.06826302706469 H 0.0 **** 0.52
3040 M 13.873609145260701 25.912058069086264 40.86696385082551 M 0.0 **** -1.04
3041 O 5.161983026788386 45.659891821558304 36.839688925275425 O 0.0 **** 0.0
3042 H 4.861265782471271 46.30364801028098 37.4810748878387 H 0.0 **** 0.52
3043 H 4.365832193191489 45.38305094406991 36.386113712389985 H 0.0 **** 0.52
3044 M 5.021570447584071 45.706862326217724 36.86373117789915 M 0.0 **** -1.04
3045 O 33.033532780911216 40.71208336291385 9.524883896207825 O 0.0 **** 0.0
3046 H 32.805562340432076 40.31974457958336 8.682073826745054 H 0.0 **** 0.52
3047 H 32.628472911813745 40.13748544368511 10.174492752258978 H 0.0 **** 0.52
3048 M 32.95249734298238 40.588303304842555 9.500151646824534 M 0.0 **** -1.04
3049 O 4.563533387535066 49.00661623124632 14.779246296974792 O 0.0 **** 0.0
3050 H 5.024332885669611 49.23548056402953 15.58640991544385 H 0.0 **** 0.52
3051 H 3.9894207027788946 48.282158999374836 15.027815388105596 H 0.0 **** 0.52
3052 M 4.549027343368808 48.943174573414446 14.914393477870938 M 0.0 **** -1.04
3053 O 13.008790942215251 24.71482491158951 46.378534435660235 O 0.0 **** 0.0
3054 H 12.700397282778285 23.868661907886704 46.70277141405266 H 0.0 **** 0.52
3055 H 13.851048219460528 24.52158202959456 45.96684405780573 H 0.0 **** 0.52
3056 M 13.07713218938758 24.581768021635547 46.36733912272615 M 0.0 **** -1.04
3057 O 16.774984604860457 32.361536162799084 31.708835269089423 O 0.0 **** 0.0
3058 H 16.796999208340704 31.679892019187065 32.38047940757613 H 0.0 **** 0.52
3059 H 16.283671014426563 33.07824409578313 32.110294113363885 H 0.0 **** 0.52
3060 M 16.71490875399348 32.36602474695499 31.846205934683994 M 0.0 **** -1.04
3061 O 45.90914347019702 38.817549364599905 22.516363093853155 O 0.0 **** 0.0
3062 H 45.88005672369424 39.68202038724112 22.92633084781565 H 0.0 **** 0.52
3063 H 46.842576389245544 38.62184443226678 22.434926657895062 H 0.0 **** 0.52
3064 M 46.02491115632024 38.90315952683277 22.55841940297736 M 0.0 **** -1.04
3065 O 47.93082174472955 32.926574411199084 1.6300632957321142 O 0.0 **** 0.0
3066 H 48.80908904289796 33.24787420120482 1.4259970975470253 H 0.0 **** 0.52
3067 H 47.38897239980696 33.23016773052534 0.9017379679143147 H 0.0 **** 0.52
3068 M 47.97388786816007 33.00656855231755 1.5107057376078075 M 0.0 **** -1.04
3069 O 32.071045440616345 8.63152963311213 22.480313094849805 O 0.0 **** 0.0
3070 H 32.05580198394888 9.140645518116372 23.29074307677169 H 0.0 **** 0.52
3071 H 31.378854445358797 7.980082957233044 22.593083489990576 H 0.0 **** 0.52
3072 M 31.980484822058116 8.613309666852153 22.598494127219027 M 0.0 **** -1.04
3073 O 5.729722743971502 16.050522638926623 2.4288864284520923 O 0.0 **** 0.0
3074 H 6.029490142591719 16.25592034155426 3.3144256449091536 H 0.0 **** 0.52
3075 H 4.913258339363567 15.567830640124441 2.557819564790961 H 0.0 **** 0.52
3076 M 5.663578719379863 16.015024970485598 2.5587521968442544 M 0.0 **** -1.04
3077 O 43.7018984716563 2.121048166632928 46.94728728518137 O 0.0 **** 0.0
3078 H 44.07791297281398 1.3130227021057235 46.598092041940184 H 0.0 **** 0.52
3079 H 44.45128922469422 2.7061503566756318 47.058176519401904 H 0.0 **** 0.52
3080 M 43.84596382306877 2.092511088749571 46.91678062831325 M 0.0 **** -1.04
3081 O 2.6810283337121064 36.58890549492506 41.36866403224479 O 0.0 **** 0.0
3082 H 3.3181369313509634 35.8953166019144 41.539706535196245 H 0.0 **** 0.52
3083 H 1.830711912910047 36.176578696600785 41.52091000004688 H 0.0 **** 0.52
3084 M 2.653735240372569 36.44733450493685 41.41004864817529 M 0.0 **** -1.04
3085 O 33.122453426673324 29.215483751976777 10.482975540038915 O 0.0 **** 0.0
3086 H 34.07693606628832 29.217975175144186 10.554981639297367 H 0.0 **** 0.52
3087 H 32.814845648876116 29.058327830663213 11.375672986882464 H 0.0 **** 0.52
3088 M 33.205261844096135 29.19568501255114 10.60646954027817 M 0.0 **** -1.04
3089 O 39.310719117241916 5.283445686038718 8.330868796754467 O 0.0 **** 0.0
3090 H 38.988662099674094 5.796425729929858 7.58968061122965 H 0.0 **** 0.52
3091 H 39.471144866477246 5.929785127857784 9.018428629409131 H 0.0 **** 0.52
3092 M 39.29002806748595 5.431853109741425 8.324003793701513 M 0.0 **** -1.04
3093 O 35.180314514410014 34.78067475019109 41.77418922969897 O 0.0 **** 0.0
3094 H 35.175085450375946 34.98711329878333 40.83953223345282 H 0.0 **** 0.52
3095 H 34.93583094101306 35.60102993961707 42.20252840454446 H 0.0 **** 0.52
3096 M 35.1483478438318 34.912117402892854 41.709373760489434 M 0.0 **** -1.04
3097 O 6.5862339158754395 6.511806940378572 5.7616048328132905 O 0.0 **** 0.0
3098 H 6.202683246682028 5.648211711540058 5.91432236825141 H 0.0 **** 0.52
3099 H 7.472032381032747 6.447530369077926 6.118617507989441 H 0.0 **** 0.52
3100 M 6.6505275374505075 6.39302736463873 5.826857052429492 M 0.0 **** -1.04
3101 O 44.142270327306946 32.46605234109342 20.711109145522414 O 0.0 **** 0.0
3102 H 44.31243323813786 32.143396778263366 19.82614227785271 H 0.0 **** 0.52
3103 H 44.768395664595175 33.180114556451684 20.830735066656104 H 0.0 **** 0.52
3104 M 44.24420438169136 32.51615765371111 20.61313592073506 M 0.0 **** -1.04
3105 O 28.585648486123635 21.718028871670306 35.57332604779533 O 0.0 **** 0.0
3106 H 27.755051553313624 21.78198922994751 36.04475773824531 H 0.0 **** 0.52
3107 H 29.025364318264614 22.550142007671194 35.747870981781425 H 0.0 **** 0.52
3108 M 28.535610394434993 21.83273796169612 35.656019097222746 M 0.0 **** -1.04
3109 O 2.6923123099754207 34.446145422399084 2.8843358906058114 O 0.0 **** 0.0
3110 H 3.1142870363486566 34.67288720452237 2.055629216699039 H 0.0 **** 0.52
3111 H 3.2344193226585105 33.74489042024054 3.2457061576966098 H 0.0 **** 0.52
3112 M 2.8157268109346276 34.38540148088247 2.8245103591663465 M 0.0 **** -1.04
3113 O 38.61234300950188 34.21234222888808 2.5897709050278976 O 0.0 **** 0.0
3114 H 38.163119484668634 34.32093445343521 3.428003312495729 H 0.0 **** 0.52
3115 H 39.386540956018315 34.771051024138906 2.658246009037339 H 0.0 **** 0.52
3116 M 38.6539434286188 34.29776550301251 2.705839850931437 M 0.0 **** -1.04
3117 O 38.31120132049555 33.422385716853206 9.488489730936552 O 0.0 **** 0.0
3118 H 37.977576343533144 32.586066357026446 9.163690685490383 H 0.0 **** 0.52
3119 H 38.79392499840288 33.19578415343057 10.28338408651154 H 0.0 **** 0.52
3120 M 38.33028809855972 33.286318185244696 9.548667888536256 M 0.0 **** -1.04
3121 O 2.5858196265875364 13.458434008961824 30.004646098344224 O 0.0 **** 0.0
3122 H 2.5784713287253567 14.41446007948116 29.957860311753155 H 0.0 **** 0.52
3123 H 3.1860537380473204 13.188745294551289 29.3095085570089 H 0.0 **** 0.52
3124 M 2.661716570637843 13.546293937295559 29.909670917322984 M 0.0 **** -1.04
3125 O 19.20312029613543 9.851175760966445 10.778622916227668 O 0.0 **** 0.0
3126 H 20.047715767558262 10.11338848627127 11.144862622069128 H 0.0 **** 0.52
3127 H 18.63444018454955 9.742238977407487 11.540832754120801 H 0.0 **** 0.52
3128 M 19.238441103133276 9.870796699445886 10.92307835208323 M 0.0 **** -1.04
3129 O 17.987813496562726 6.33971636054143 25.201903492203105 O 0.0 **** 0.0
3130 H 18.089795063288527 5.5512500001385305 24.668846006314617 H 0.0 **** 0.52
3131 H 18.87928610957784 6.668940909675067 25.31642913942835 H 0.0 **** 0.52
3132 M 18.114988156370856 6.280927573064607 25.14832626914441 M 0.0 **** -1.04
3133 O 32.89667132418299 29.909200347131307 17.657874430774925 O 0.0 **** 0.0
3134 H 33.72372650903998 29.6581490728816 18.069191488104963 H 0.0 **** 0.52
3135 H 32.223439803807196 29.514900690880662 18.21241634078443 H 0.0 **** 0.52
3136 M 32.916362498059044 29.826587423401488 17.781516842079313 M 0.0 **** -1.04
3137 O 14.871921508923206 23.595451361035742 42.223963189044106 O 0.0 **** 0.0
3138 H 15.586478489978559 23.123180527180647 41.79664755151516 H 0.0 **** 0.52
3139 H 14.327172154691326 22.909095695616617 42.60918084057621 H 0.0 **** 0.52
3140 M 14.893659323540602 23.447132499086266 42.21857399924697 M 0.0 **** -1.04
3141 O 5.093408364769491 20.992369342518025 23.19592198705456 O 0.0 **** 0.0
3142 H 4.636935133990545 20.1785767159862 23.409471400200346 H 0.0 **** 0.52
3143 H 4.453589681055374 21.503484801287975 22.700319762795075 H 0.0 **** 0.52
3144 M 4.953069047221126 20.953622646901668 23.159815096218068 M 0.0 **** -1.04
3145 O 34.80461961554963 7.49375340854273 13.65227706412923 O 0.0 **** 0.0
3146 H 35.247970041418924 7.3421395540757715 14.486951957223638 H 0.0 **** 0.52
3147 H 34.12374682127411 6.821910881343257 13.616677518280298 H 0.0 **** 0.52
3148 M 34.77421401281048 7.388340986704975 13.75456827101118 M 0.0 **** -1.04
3149 O 0.3769937368658631 34.63003014610605 4.449620939807211 O 0.0 **** 0.0
3150 H 1.0685530707876012 34.675047792230046 3.789356905102011 H 0.0 **** 0.52
3151 H 0.3668730606257071 33.71318359611391 4.724426925935532 H 0.0 **** 0.52
3152 M 0.4642272800590277 34.51842483940255 4.40027785918177 M 0.0 **** -1.04
3153 O 30.807112289691947 9.48231920993937 33.97906607926437 O 0.0 **** 0.0
3154 H 30.197799940286803 10.141428013373796 34.31154373256305 H 0.0 **** 0.52
3155 H 30.929858973040496 8.877978396125203 34.71114078163821 H 0.0 **** 0.52
3156 M 30.744825964842853 9.489330381984912 34.11534178611018 M 0.0 **** -1.04
3157 O 16.49735358268977 3.4941500803369854 48.59416652997616 O 0.0 **** 0.0
3158 H 16.838239517104554 4.332321146244905 48.28192593423441 H 0.0 **** 0.52
3159 H 16.049957319653075 3.119400780068195 47.83546407795621 H 0.0 **** 0.52
3160 M 16.48371837872486 3.5534742939749826 48.45707168555422 M 0.0 **** -1.04
3161 O 18.44956434649949 14.642164890683384 49.63447465835645 O 0.0 **** 0.0
3162 H 17.878243635247266 14.73225867350284 50.39717010130994 H 0.0 **** 0.52
3163 H 18.46544765874662 13.701838739575553 49.456256041606466 H 0.0 **** 0.52
3164 M 18.37846110801032 14.53332465487507 49.70929490993686 M 0.0 **** -1.04
3165 O 15.86251098649241 19.939900222368685 46.06884312708292 O 0.0 **** 0.0
3166 H 15.985121958146932 20.873803523148858 45.89849376274097 H 0.0 **** 0.52
3167 H 15.261444230140846 19.64783366549711 45.38353694714282 H 0.0 **** 0.52
3168 M 15.80126242774924 20.022063018972545 45.95930803393868 M 0.0 **** -1.04
3169 O 30.37783686512982 4.292228551893203 23.838675970134883 O 0.0 **** 0.0
3170 H 30.443866539550378 4.146454535795385 22.894949916074722 H 0.0 **** 0.52
3171 H 29.504323947691574 3.9763186701243924 24.069772087055274 H 0.0 **** 0.52
3172 M 30.274468845106934 4.2331269630518875 23.74745006134802 M 0.0 **** -1.04
3173 O 21.731464915569322 5.774513876235275 48.125497484122754 O 0.0 **** 0.0
3174 H 21.12562297892813 5.107012175938223 48.44740612951699 H 0.0 **** 0.52
3175 H 21.443698681323237 5.947563399920469 47.22913118389873 H 0.0 **** 0.52
3176 M 21.617071820439776 5.711217755427995 48.05195976178627 M 0.0 **** -1.04
3177 O 48.3738180628985 15.4856118340489 21.15248668368787 O 0.0 **** 0.0
3178 H 48.21255771662542 15.10116005656473 22.014124587867116 H 0.0 **** 0.52
3179 H 48.797341392733045 14.787137658733785 20.65349594066751 H 0.0 **** 0.52
3180 M 48.40739174090999 15.346983643044705 21.19890948149984 M 0.0 **** -1.04
3181 O 48.60200775361202 35.8173651084691 27.33363112461921 O 0.0 **** 0.0
3182 H 48.30110572104073 36.5852377481697 26.84777378980944 H 0.0 **** 0.52
3183 H 47.86320282509635 35.20951932738755 27.303328606686186 H 0.0 **** 0.52
3184 M 48.46891226960249 35.837849899852934 27.267556538375917 M 0.0 **** -1.04
3185 O 5.683455284651991 49.33361163919741 27.055430761941256 O 0.0 **** 0.0
3186 H 5.5750183289055 49.257954437287964 28.003453359556055 H 0.0 **** 0.52
3187 H 4.8926552327047546 48.93610527367046 26.690941476018555 H 0.0 **** 0.52
3188 M 5.568341750130124 49.27304069651414 27.13013028310661 M 0.0 **** -1.04
3189 O 23.225229268778495 45.55026561891064 12.171663439057033 O 0.0 **** 0.0
3190 H 23.857868201423468 45.69113396557926 11.467282086641282 H 0.0 **** 0.52
3191 H 23.420531967380505 44.671676319782634 12.49749480254263 H 0.0 **** 0.52
3192 M 23.33121617408674 45.45582793659474 12.123204370287713 M 0.0 **** -1.04
3193 O 18.35979828599158 19.961837233111908 4.735158579824258 O 0.0 **** 0.0
3194 H 19.181881240845513 19.4778180014402 4.8134764440670486 H 0.0 **** 0.52
3195 H 18.507630086756315 20.570393378751277 4.011255810529796 H 0.0 **** 0.52
3196 M 18.48396016132883 19.977779745724362 4.6525157436535505 M 0.0 **** -1.04
3197 O 32.13639390761932 47.389218994320856 13.485764975737503 O 0.0 **** 0.0
3198 H 32.27650007723375 48.19391007554487 12.986693457807291 H 0.0 **** 0.52
3199 H 31.301575934354858 47.526735920093564 13.933422008689398 H 0.0 **** 0.52
3200 M 32.04746189349723 47.509833651371814 13.479183647096193 M 0.0 **** -1.04
3201 O 36.24782400306393 18.216849804967723 49.76942968083774 O 0.0 **** 0.0
3202 H 35.44047255830676 18.70771531310308 49.92260728471918 H 0.0 **** 0.52
3203 H 36.658867198424694 18.155845248107966 50.631723337069936 H 0.0 **** 0.52
3204 M 36.19709178285581 18.271877340702133 49.89942273525887 M 0.0 **** -1.04
3205 O 49.592995193101764 4.707415284323773 45.715621042290124 O 0.0 **** 0.0
3206 H 49.36556657327354 4.830253607926579 44.79398376542139 H 0.0 **** 0.52
3207 H 49.23159475818612 3.8498705072735504 45.93975625412933 H 0.0 **** 0.52
3208 M 49.5176171055528 4.61336333073865 45.626332302522606 M 0.0 **** -1.04
3209 O 20.123727452319724 40.51300938992112 4.818490676337632 O 0.0 **** 0.0
3210 H 19.265077695230197 40.58488357496747 5.235363104228703 H 0.0 **** 0.52
3211 H 20.178548437193044 39.5995175344255 4.537855942100293 H 0.0 **** 0.52
3212 M 20.020826763646383 40.40527177369785 4.835931345335652 M 0.0 **** -1.04
3213 O 29.45888110632832 24.569651234996996 41.053793152120925 O 0.0 **** 0.0
3214 H 28.797207834008045 24.166944251093007 41.616150253252314 H 0.0 **** 0.52
3215 H 29.106838369181293 25.436557345209422 40.85188249464258 H 0.0 **** 0.52
3216 M 29.32911263700249 24.629074670140845 41.099934403247616 M 0.0 **** -1.04
3217 O 42.04543817299637 43.50414956380179 14.566467067854987 O 0.0 **** 0.0
3218 H 41.34840705648956 42.98443628228873 14.166124710864116 H 0.0 **** 0.52
3219 H 42.433474716025714 42.92230215580411 15.220002656064256 H 0.0 **** 0.52
3220 M 42.00588317683 43.363136215828305 14.59887853165379 M 0.0 **** -1.04
3221 O 46.54392508585041 34.237872615717095 46.693672447194984 O 0.0 **** 0.0
3222 H 47.30978242439453 34.34456933208679 46.12948472422862 H 0.0 **** 0.52
3223 H 46.08292751328649 35.07457111852438 46.63329119166707 H 0.0 **** 0.52
3224 M 46.58295118406434 34.35863851733023 46.61371959096232 M 0.0 **** -1.04
3225 O 8.55939804429496 20.45977911999392 43.49626214350182 O 0.0 **** 0.0
3226 H 7.859830801000411 20.535433235762508 44.145193967175516 H 0.0 **** 0.52
3227 H 9.363733600360655 20.61575115229101 43.99118196885796 H 0.0 **** 0.52
3228 M 8.572808920359385 20.48942967691926 43.64269001495122 M 0.0 **** -1.04
3229 O 25.73464806077296 12.493791579564784 0.10369120672961271 O 0.0 **** 0.0
3230 H 25.51701848960077 12.690589273285486 -0.8074273781398063 H 0.0 **** 0.52
3231 H 25.328449195158054 13.200496522841137 0.6054874990582313 H 0.0 **** 0.52
3232 M 25.65478951695331 12.609451749388521 0.05129277540438036 M 0.0 **** -1.04
3233 O 7.843807458159765 18.88660380526782 29.308042453545365 O 0.0 **** 0.0
3234 H 8.368997256403345 18.196318628549136 29.712900480329907 H 0.0 **** 0.52
3235 H 8.48620683099659 19.47919794894405 28.9176792165557 H 0.0 **** 0.52
3236 M 7.993273136397842 18.874098153254746 29.309897746122616 M 0.0 **** -1.04
3237 O 0.998463391684183 0.8777285565439836 42.082915238684556 O 0.0 **** 0.0
3238 H 0.13078708343717693 0.8845597606958715 42.487041963421284 H 0.0 **** 0.52
3239 H 0.9707838562896995 0.14516638153884542 41.467435551399234 H 0.0 **** 0.52
3240 M 0.8838468936151216 0.7848254065613208 42.05585929843704 M 0.0 **** -1.04
3241 O 35.325865059126514 1.6121405872552204 36.79819511934034 O 0.0 **** 0.0
3242 H 34.911479114407186 0.848759935267937 36.39599682134758 H 0.0 **** 0.52
3243 H 35.06486290058107 1.5700457845640325 37.718159565067324 H 0.0 **** 0.52
3244 M 35.239406494611345 1.5090297013946166 36.86447542039586 M 0.0 **** -1.04
3245 O 37.39758159436678 8.419894727810409 8.792914150756678 O 0.0 **** 0.0
3246 H 37.81943803650988 8.679226632059256 7.973760056671755 H 0.0 **** 0.52
3247 H 37.07172711415371 7.5355627392794045 8.625568303321092 H 0.0 **** 0.52
3248 M 37.409870684976134 8.339887003377287 8.66662945599508 M 0.0 **** -1.04
3249 O 43.78271619822066 16.98215866939201 40.93964332030746 O 0.0 **** 0.0
3250 H 44.240784577319204 17.24058990733992 40.13988339040864 H 0.0 **** 0.52
3251 H 43.403828555864365 16.127598537375953 40.73372762225507 H 0.0 **** 0.52
3252 M 43.792851893293566 16.90584648263715 40.810904091837344 M 0.0 **** -1.04
3253 O 1.3321737334551842 10.266346198429055 41.03805168324834 O 0.0 **** 0.0
3254 H 0.37774408899137735 10.198641239405887 41.06467009476143 H 0.0 **** 0.52
3255 H 1.514455832904029 11.178471833663345 41.26394880117391 H 0.0 **** 0.52
3256 M 1.2333292055939604 10.374442330533592 41.07037746968785 M 0.0 **** -1.04
3257 O 48.82297127344981 19.081606794393075 23.648517774884 O 0.0 **** 0.0
3258 H 48.917931477245396 18.512345666703492 24.41216297271213 H 0.0 **** 0.52
3259 H 49.65303912465239 19.555574696792046 23.597801262368407 H 0.0 **** 0.52
3260 M 48.94138712876404 19.06940768336467 23.739781593039513 M 0.0 **** -1.04
3261 O 13.675448455117026 33.975799392404085 25.15534617264484 O 0.0 **** 0.0
3262 H 14.560231139823763 33.913685269416405 24.795442744510925 H 0.0 **** 0.52
3263 H 13.25312139720746 34.660880173231014 24.63714410931823 H 0.0 **** 0.52
3264 M 13.734647835828872 34.05554693872617 25.042937606828264 M 0.0 **** -1.04
3265 O 25.175352565985808 12.513475280790914 47.07144653257078 O 0.0 **** 0.0
3266 H 24.45372299949458 13.133909196669109 46.96877526077842 H 0.0 **** 0.52
3267 H 25.933907371144244 12.964072984365671 46.70025340982612 H 0.0 **** 0.52
3268 M 25.180079353932687 12.65058105455934 47.01078639359914 M 0.0 **** -1.04
3269 O 32.6158406039764 43.15921783598534 41.25884642319409 O 0.0 **** 0.0
3270 H 32.737371091137526 42.70116000777419 42.090496836297454 H 0.0 **** 0.52
3271 H 31.750944850263924 42.882204665446665 40.95644179143497 H 0.0 **** 0.52
3272 M 32.52068034248584 43.065119329210766 41.326596634484325 M 0.0 **** -1.04
3273 O 34.68537508627878 33.37350684961057 11.993701937016901 O 0.0 **** 0.0
3274 H 34.09042387326324 33.644673677392824 11.294610034065954 H 0.0 **** 0.52
3275 H 35.331550224114665 34.07777808290179 12.045555009336653 H 0.0 **** 0.52
3276 M 34.69193286450865 33.49837459704281 11.910847715930231 M 0.0 **** -1.04
3277 O 12.600553464722651 18.282278110571667 26.485930042388265 O 0.0 **** 0.0
3278 H 11.681432398331388 18.055620869065066 26.62760358353187 H 0.0 **** 0.52
3279 H 13.084190436852388 17.49954933388328 26.749860487045268 H 0.0 **** 0.52
3280 M 12.544806017058235 18.153064054276555 26.53785276991353 M 0.0 **** -1.04
3281 O 24.669687261557183 28.79108293272028 17.66429357443379 O 0.0 **** 0.0
3282 H 24.170826775676662 28.950648129909403 18.46548348470363 H 0.0 **** 0.52
3283 H 25.058112987668316 29.63939693005938 17.450476287385385 H 0.0 **** 0.52
3284 M 24.655549982416705 28.9201038908307 17.73948492691383 M 0.0 **** -1.04
3285 O 1.0947866298490097 48.24933898354771 9.275587052732174 O 0.0 **** 0.0
3286 H 1.1333534369113036 49.17645871418484 9.04065980405558 H 0.0 **** 0.52
3287 H 1.0461260427703598 47.79100778450556 8.43666352401388 H 0.0 **** 0.52
3288 M 1.0934941766828967 48.3093499914963 9.138120559546316 M 0.0 **** -1.04
3289 O 13.82291714790719 49.12404941495594 8.650013090929129 O 0.0 **** 0.0
3290 H 12.992853692260454 48.70342059656223 8.874276297924169 H 0.0 **** 0.52
3291 H 14.02035357286745 48.81008598437776 7.767587372722383 H 0.0 **** 0.52
3292 M 13.74193300994122 49.03001247695793 8.565759336788018 M 0.0 **** -1.04
3293 O 17.921940844876666 20.245618596063906 30.19056083764686 O 0.0 **** 0.0
3294 H 18.6061099985669 20.67068563503483 29.673397051133925 H 0.0 **** 0.52
3295 H 17.574209410585095 19.56449695182303 29.61490072575162 H 0.0 **** 0.52
3296 M 17.965008760742485 20.212840577752416 30.05066531777739 M 0.0 **** -1.04
3297 O 6.214871734636747 8.198375077517413 26.908356787858235 O 0.0 **** 0.0
3298 H 6.464716167673023 8.52599382403517 27.772343417017165 H 0.0 **** 0.52
3299 H 7.04623937567038 8.001714728452415 26.476637128508223 H 0.0 **** 0.52
3300 M 6.3532801493326305 8.215139243737944 26.963692187534342 M 0.0 **** -1.04
3301 O 14.653862882281004 29.497905668154345 46.98700437906034 O 0.0 **** 0.0
3302 H 14.077047853607212 29.234573398257652 47.70406023102816 H 0.0 **** 0.52
3303 H 14.634334104108774 28.758534573875128 46.379404521893946 H 0.0 **** 0.52
3304 M 14.577523597774473 29.369547263514736 47.00101582582394 M 0.0 **** -1.04
3305 O 8.434468191316844 32.23628532561843 36.19149968703269 O 0.0 **** 0.0
3306 H 9.03434289482884 31.8171524337007 35.57448620288442 H 0.0 **** 0.52
3307 H 9.003388781651916 32.59946871715705 36.87021613381514 H 0.0 **** 0.52
3308 M 8.584088660571721 32.22912326252676 36.19939834402081 M 0.0 **** -1.04
3309 O 46.690939463304026 43.69053065662851 18.98449833920665 O 0.0 **** 0.0
3310 H 46.13952507294614 44.33754341947786 18.544561010746765 H 0.0 **** 0.52
3311 H 47.4321580607413 44.19503981134854 19.319600943717425 H 0.0 **** 0.52
3312 M 46.715237060700964 43.83793927313028 18.9710779641458 M 0.0 **** -1.04
3313 O 30.30643810617787 21.487621202734662 26.712518656344685 O 0.0 **** 0.0
3314 H 31.188639704326448 21.13936331991807 26.583425499917304 H 0.0 **** 0.52
3315 H 29.826329169260877 20.77481218226848 27.13397737265703 H 0.0 **** 0.52
3316 M 30.357911288490094 21.35179187116913 26.74994584304256 M 0.0 **** -1.04
3317 O 42.32617714697406 10.905204931216746 2.754496378465653 O 0.0 **** 0.0
3318 H 42.13001170433957 10.009684834355387 3.0298005639366608 H 0.0 **** 0.52
3319 H 42.42580095847935 11.391503189944162 3.5729202012477472 H 0.0 **** 0.52
3320 M 42.31381805193527 10.852819072886016 2.8945073397071255 M 0.0 **** -1.04
3321 O 37.67523965951203 33.869692029559694 32.41580303708308 O 0.0 **** 0.0
3322 H 37.80720902854427 33.26041845945538 33.142162620756 H 0.0 **** 0.52
3323 H 36.77922498153447 33.70350734618285 32.12294159671815 H 0.0 **** 0.52
3324 M 37.57743230329629 33.77042325407298 32.471295893816645 M 0.0 **** -1.04
3325 O 39.65284631271751 5.028939292220974 22.881101279319594 O 0.0 **** 0.0
3326 H 39.8573138421902 5.855394238514549 22.443614813301785 H 0.0 **** 0.52
3327 H 40.073851890335725 4.360617935687088 22.340425573695057 H 0.0 **** 0.52
3328 M 39.73291516446477 5.049182756695386 22.75588369795045 M 0.0 **** -1.04
3329 O 34.555803179548775 16.74124546078929 41.189989236749064 O 0.0 **** 0.0
3330 H 34.59908662665006 16.309716249649128 40.33667872108669 H 0.0 **** 0.52
3331 H 34.13064226263014 17.580428922207172 41.01324558218459 H 0.0 **** 0.52
3332 M 34.50691806597914 16.79343005456342 41.058128918287 M 0.0 **** -1.04
3333 O 32.85927888831627 41.850795435082155 16.327877789453765 O 0.0 **** 0.0
3334 H 32.16684451236728 41.22467420690999 16.539388012197534 H 0.0 **** 0.52
3335 H 32.74634086523771 42.02706100104016 15.39385191241962 H 0.0 **** 0.52
3336 M 32.75618072322966 41.793207834644896 16.23538683724425 M 0.0 **** -1.04
3337 O 7.757126184485955 36.833975919039226 14.894963259978486 O 0.0 **** 0.0
3338 H 8.06227718914856 37.10276645700162 15.76148686940736 H 0.0 **** 0.52
3339 H 8.053886945625337 37.530506109713734 14.309294732502185 H 0.0 **** 0.52
3340 M 7.8341784796864715 36.957548532550845 14.930916105613433 M 0.0 **** -1.04
3341 O 8.929913531216593 34.92614192353657 10.10192990005396 O 0.0 **** 0.0
3342 H 8.773482716848914 35.86483226330938 10.204978940974328 H 0.0 **** 0.52
3343 H 9.588188081331946 34.71832477504857 10.765040397022517 H 0.0 **** 0.52
3344 M 8.994155632733907 35.01970322775687 10.20000830127583 M 0.0 **** -1.04
3345 O 17.691355905237216 20.945786524454064 42.991386526492676 O 0.0 **** 0.0
3346 H 18.574623804160765 20.579314251035413 43.03338608622097 H 0.0 **** 0.52
3347 H 17.171138169553416 20.269137776209206 42.5580866197335 H 0.0 **** 0.52
3348 M 17.737831118684284 20.812253331353034 42.94129526269038 M 0.0 **** -1.04
3349 O 31.54181666496681 1.2766516209284617 48.97250466434938 O 0.0 **** 0.0
3350 H 31.788508927287666 2.1748767864576593 49.19287297892418 H 0.0 **** 0.52
3351 H 30.973126248822496 1.0007400782384508 49.69131915040089 H 0.0 **** 0.52
3352 M 31.500596750495543 1.3563150403845299 49.09273206462293 M 0.0 **** -1.04
3353 O 44.59056427316373 24.65858328097771 40.8748786805729 O 0.0 **** 0.0
3354 H 45.10094070605323 23.870802151577507 41.06235086757404 H 0.0 **** 0.52
3355 H 43.71188515940138 24.457567953823595 41.19697456155246 H 0.0 **** 0.52
3356 M 44.543416853570434 24.53200448751681 40.94011068339881 M 0.0 **** -1.04
3357 O 0.5533287525077603 48.52458363935392 26.681336820989447 O 0.0 **** 0.0
3358 H 1.4880393319056355 48.55180382883492 26.476877469428686 H 0.0 **** 0.52
3359 H 0.31811865239493703 47.59976031914815 26.606461464076542 H 0.0 **** 0.52
3360 M 0.6428731844121405 48.40967995340718 26.645579015565215 M 0.0 **** -1.04
3361 O 30.916707924688343 36.742715877572216 9.109198254283674 O 0.0 **** 0.0
3362 H 30.204942473357686 37.263070283039006 8.73657143529163 H 0.0 **** 0.52
3363 H 30.684315358471732 36.64459374580833 10.032558186399058 H 0.0 **** 0.52
3364 M 30.795843822036126 36.796766302938934 9.179698972696645 M 0.0 **** -1.04
3365 O 24.67404380102397 18.674652592181225 19.370314764418172 O 0.0 **** 0.0
3366 H 24.765203640862694 17.74643492250203 19.58555976543149 H 0.0 **** 0.52
3367 H 25.47193194876131 19.07940065109938 19.710581191965193 H 0.0 **** 0.52
3368 M 24.787852817847835 18.607642144042973 19.441426518628766 M 0.0 **** -1.04
3369 O 3.721950146697717 23.432551821520534 38.90341511715324 O 0.0 **** 0.0
3370 H 3.0999456806260106 24.140623635821626 39.070668751988904 H 0.0 **** 0.52
3371 H 3.872383045888564 23.463443725696365 37.958616231457476 H 0.0 **** 0.52
3372 M 3.6615832459470363 23.527148672633444 38.8038793981309 M 0.0 **** -1.04
3373 O 20.803010907335096 16.9244661719856 48.94104985628016 O 0.0 **** 0.0
3374 H 21.24345637479103 17.0140253454952 48.09593710235721 H 0.0 **** 0.52
3375 H 20.626995400774653 15.987061444798982 49.02179683009254 H 0.0 **** 0.52
3376 M 20.83686022391934 16.81593136934049 48.843201400300764 M 0.0 **** -1.04
3377 O 30.809605257736834 7.973657437208885 13.71702638532184 O 0.0 **** 0.0
3378 H 31.683696153582282 8.221471257319788 14.018329037634185 H 0.0 **** 0.52
3379 H 30.953976185059783 7.200158225034305 13.171971194103076 H 0.0 **** 0.52
3380 M 30.93998116383374 7.906362453521433 13.685823180023345 M 0.0 **** -1.04
3381 O 43.42448336368173 3.2458123899611238 14.000558335764733 O 0.0 **** 0.0
3382 H 43.99986808549749 2.5141113797642376 14.223661193102055 H 0.0 **** 0.52
3383 H 43.4876542657295 3.3190731740934254 13.048261203769679 H 0.0 **** 0.52
3384 M 43.506226563569804 3.1615241644520324 13.907212782246678 M 0.0 **** -1.04
3385 O 32.882323865176 28.002692350590447 33.87824622902963 O 0.0 **** 0.0
3386 H 33.114804078011915 27.540781537949446 34.68373980720204 H 0.0 **** 0.52
3387 H 32.116377230061765 28.526017707320552 34.11422455403932 H 0.0 **** 0.52
3388 M 32.81403363979513 28.010554492712583 34.01156748560816 M 0.0 **** -1.04
3389 O 41.70842402036911 15.497756267489944 13.23069595321735 O 0.0 **** 0.0
3390 H 41.8266691944654 15.055229096469581 14.071181743520242 H 0.0 **** 0.52
3391 H 41.03572991268383 16.157495694024075 13.399382008723826 H 0.0 **** 0.52
3392 M 41.63744764528948 15.525561473281414 13.359882650138744 M 0.0 **** -1.04
3393 O 46.62840144658156 5.037414153673133 43.6536573434389 O 0.0 **** 0.0
3394 H 46.31774210059222 4.2012076215006005 43.30655852314285 H 0.0 **** 0.52
3395 H 47.552407382301716 5.071599151884406 43.40612283837411 H 0.0 **** 0.52
3396 M 46.70691755953859 4.934745098405628 43.57753619651107 M 0.0 **** -1.04
3397 O 7.038964418239374 48.020494219799964 48.830145093574814 O 0.0 **** 0.0
3398 H 6.7234441380185785 47.87673889194146 49.72233936420122 H 0.0 **** 0.52
3399 H 7.926800747795134 48.360481590991746 48.94142908361363 H 0.0 **** 0.52
3400 M 7.1122280091744585 48.045614267596555 48.95860244359025 M 0.0 **** -1.04
3401 O 40.30759526136142 2.017938006957216 33.24048424062044 O 0.0 **** 0.0
3402 H 40.286631710402965 1.0884312576315693 33.46809692996204 H 0.0 **** 0.52
3403 H 39.81583445551817 2.4475511617906704 33.94036543687054 H 0.0 **** 0.52
3404 M 40.24195975911998 1.9539452911668036 33.35921581639235 M 0.0 **** -1.04
3405 O 1.1162065629719535 37.613486753191964 15.110157728738102 O 0.0 **** 0.0
3406 H 0.30107639987507184 37.93395577059587 14.724034571863442 H 0.0 **** 0.52
3407 H 1.7317578948720538 38.33936893059363 15.008081320510414 H 0.0 **** 0.52
3408 M 1.0906583425065506 37.74743285909962 15.047662403391094 M 0.0 **** -1.04
3409 O 5.041342856094912 37.11277611305241 26.71210749735733 O 0.0 **** 0.0
3410 H 5.586332474188625 37.233364756201176 27.48971397855892 H 0.0 **** 0.52
3411 H 4.321506395192139 36.55534712751013 27.007636003118417 H 0.0 **** 0.52
3412 M 5.018959894855823 37.05685468311558 26.849482343712086 M 0.0 **** -1.04
3413 O 4.5242895735104085 24.74723281465855 17.92153771072526 O 0.0 **** 0.0
3414 H 4.315554859106513 25.527706978625368 18.434879515181514 H 0.0 **** 0.52
3415 H 4.9857237374160235 24.173807955152913 18.53349412166893 H 0.0 **** 0.52
3416 M 4.5566385590573475 24.77373789647154 18.065591038160555 M 0.0 **** -1.04
3417 O 39.92814447734776 32.15315201219109 1.4062178425149554 O 0.0 **** 0.0
3418 H 39.52185749736954 31.286645889220143 1.4243248113061782 H 0.0 **** 0.52
3419 H 39.389816112773 32.68295908429996 1.994209075933 H 0.0 **** 0.52
3420 M 39.80722221942947 32.11005047270955 1.4838063150624805 M 0.0 **** -1.04
3421 O 29.273078037537413 46.10870758605748 22.30442353395157 O 0.0 **** 0.0
3422 H 28.340650263903832 46.02163063641769 22.502475517869254 H 0.0 **** 0.52
3423 H 29.6447030806755 46.53005267091149 23.079401997486883 H 0.0 **** 0.52
3424 M 29.20128879148056 46.15149843419393 22.42898412865287 M 0.0 **** -1.04
3425 O 34.939429869421396 4.555727891893149 7.306416289332193 O 0.0 **** 0.0
3426 H 35.71409999404371 3.9948798425870606 7.345959659408932 H 0.0 **** 0.52
3427 H 35.090206027333934 5.220928156111299 7.977983817971758 H 0.0 **** 0.52
3428 M 35.05789841313557 4.569086485725073 7.397446893279839 M 0.0 **** -1.04
3429 O 16.183064930889536 0.563418812179993 30.7457594006386 O 0.0 **** 0.0
3430 H 15.673162335269296 0.6993000503050784 29.947157800818722 H 0.0 **** 0.52
3431 H 15.780673015120465 1.1464035426666666 31.389528801222863 H 0.0 **** 0.52
3432 M 16.066278832503944 0.6554426516843604 30.72593891205397 M 0.0 **** -1.04
3433 O 39.77365558735085 30.64642559571645 12.18877761462339 O 0.0 **** 0.0
3434 H 39.749709011380176 31.600290334789182 12.112639662333429 H 0.0 **** 0.52
3435 H 38.881403682335886 30.402879321122047 12.435356085577922 H 0.0 **** 0.52
3436 M 39.65637021272555 30.737354912925262 12.210596237218326 M 0.0 **** -1.04
3437 O 19.30132099969765 17.209850868873648 14.825906590250973 O 0.0 **** 0.0
3438 H 18.512820472899236 16.997480769616285 14.32651338164293 H 0.0 **** 0.52
3439 H 19.60057665005066 16.36871159590208 15.171100411744732 H 0.0 **** 0.52
3440 M 19.238691387068677 17.074988308733804 14.806167618330772 M 0.0 **** -1.04
3441 O 46.57423663188098 7.595508930346754 35.19965370773847 O 0.0 **** 0.0
3442 H 45.728340134315104 7.477804994241559 34.76741044628474 H 0.0 **** 0.52
3443 H 46.99679203907708 8.302316205074739 34.71169979711273 H 0.0 **** 0.52
3444 M 46.520043476403316 7.670921253053037 35.08185704505477 M 0.0 **** -1.04
3445 O 4.777514146060071 16.864781932104798 16.907662275887965 O 0.0 **** 0.0
3446 H 5.140984642974104 16.472176714316575 16.113949874336786 H 0.0 **** 0.52
3447 H 4.022010857294418 17.36716406626849 16.60261069809985 H 0.0 **** 0.52
3448 M 4.727328635480106 16.878834861401938 16.76700603735946 M 0.0 **** -1.04
3449 O 23.76944629735306 8.16288322909383 10.491780199106081 O 0.0 **** 0.0
3450 H 23.825821935603233 9.078435214797784 10.21825523271444 H 0.0 **** 0.52
3451 H 24.252909636014916 8.12880697794576 11.317207540921054 H 0.0 **** 0.52
3452 M 23.83855250950718 8.2757231739859 10.5624305420668 M 0.0 **** -1.04
3453 O 33.39261665158226 22.058670219869274 43.67860728704047 O 0.0 **** 0.0
3454 H 34.09882020939541 21.552434133026026 44.08014180638408 H 0.0 **** 0.52
3455 H 33.42661754355704 22.908385492412435 44.117989097944886 H 0.0 **** 0.52
3456 M 33.48737214119856 22.102639967750054 43.786254707055406 M 0.0 **** -1.04
3457 O 37.66395549719584 19.541483539058373 44.04823930762988 O 0.0 **** 0.0
3458 H 37.517340376973955 19.330399371803818 43.12619004254353 H 0.0 **** 0.52
3459 H 37.85182192826345 18.698305391626086 44.46053293651843 H 0.0 **** 0.52
3460 M 37.669236319311345 19.406524475159998 43.982984571813454 M 0.0 **** -1.04
3461 O 20.397135106894233 28.261914899668074 4.0319291472030026 O 0.0 **** 0.0
3462 H 20.917220718480962 28.896199020602207 4.525306939441421 H 0.0 **** 0.52
3463 H 19.885577804341494 28.79355777285477 3.422098515106225 H 0.0 **** 0.52
3464 M 20.398226305333903 28.411167727316023 4.017021151125345 M 0.0 **** -1.04
3465 O 3.4740384534098965 5.021516537450536 47.450541236592784 O 0.0 **** 0.0
3466 H 3.963522857683465 5.256416121740216 46.662216769303406 H 0.0 **** 0.52
3467 H 4.142086102799851 4.9327386967435265 48.130291137151474 H 0.0 **** 0.52
3468 M 3.622217538671684 5.040221606016171 47.43664195308787 M 0.0 **** -1.04
3469 O 0.49943901135361557 19.51967651202108 3.037293122095158 O 0.0 **** 0.0
3470 H 0.4971878641342471 19.618024665410417 3.9894223791054158 H 0.0 **** 0.52
3471 H 0.22203679209592053 18.615679705451626 2.8887465951216207 H 0.0 **** 0.52
3472 M 0.46364022698253393 19.416542936415 3.1401618786020546 M 0.0 **** -1.04
3473 O 25.105605905420283 16.020235997265637 19.585699484468655 O 0.0 **** 0.0
3474 H 24.274707030443874 15.995322540572623 20.060268778662767 H 0.0 **** 0.52
3475 H 25.749896258799886 16.28195538370926 20.243439147997407 H 0.0 **** 0.52
3476 M 25.081716687793133 16.050550093724205 19.730649337683648 M 0.0 **** -1.04
3477 O 26.150163213813542 2.816182863314168 2.130538139145575 O 0.0 **** 0.0
3478 H 26.313945567815804 2.6905763872041675 3.0652183965169026 H 0.0 **** 0.52
3479 H 26.589332666536908 3.6398328867652197 1.9184969558325766 H 0.0 **** 0.52
3480 M 26.227349210772637 2.9055410894045295 2.223045281082915 M 0.0 **** -1.04
3481 O 1.3859711031562938 46.0862468152069 46.90253032792232 O 0.0 **** 0.0
3482 H 1.7112891488716215 45.516137338909914 46.20584406958417 H 0.0 **** 0.52
3483 H 2.145981746003386 46.60799550025758 47.16019195932853 H 0.0 **** 0.52
3484 M 1.5249069083554616 46.08005614413341 46.846330129779496 M 0.0 **** -1.04
3485 O 6.52853436164104 49.92788455062062 16.55098742610441 O 0.0 **** 0.0
3486 H 6.569457793873747 49.15839450313404 17.118825267529626 H 0.0 **** 0.52
3487 H 7.414217906541811 50.013111551660934 16.19810154218764 H 0.0 **** 0.52
3488 M 6.647151479876452 49.84028985156957 16.578504291272598 M 0.0 **** -1.04
3489 O 16.987961170122887 11.504684879767034 4.755040073826635 O 0.0 **** 0.0
3490 H 17.882686135413124 11.16841577558202 4.8062112607006355 H 0.0 **** 0.52
3491 H 16.446450804393237 10.726720305708689 4.621751253531606 H 0.0 **** 0.52
3492 M 17.033177073208194 11.362049021415558 4.744528007116315 M 0.0 **** -1.04
3493 O 7.060944327395547 32.564128428159385 24.95466844996399 O 0.0 **** 0.0
3494 H 7.347999738895014 33.45699678572761 25.146014129832867 H 0.0 **** 0.52
3495 H 6.460373886295333 32.34711836497242 25.66772479399753 H 0.0 **** 0.52
3496 M 7.020810834565954 32.65064663830917 25.070443538850935 M 0.0 **** -1.04
3497 O 42.3938354647175 20.545680704933744 9.547347032896774 O 0.0 **** 0.0
3498 H 42.16408806168739 20.42614148925368 10.46884258176085 H 0.0 **** 0.52
3499 H 43.14303989708357 21.141249768531836 9.562109694266537 H 0.0 **** 0.52
3500 M 42.46033237643604 20.60661849860658 9.667199973637405 M 0.0 **** -1.04
3501 O 39.68375893955323 3.2370420954789108 44.42963347937166 O 0.0 **** 0.0
3502 H 40.52595616423068 2.988112542382647 44.8103786115028 H 0.0 **** 0.52
3503 H 39.06700547693223 3.1906007244782777 45.16017087612164 H 0.0 **** 0.52
3504 M 39.71261917054623 3.1992313417732534 44.57189122333743 M 0.0 **** -1.04
3505 O 15.126200839503822 47.42568765132879 3.8444172158685723 O 0.0 **** 0.0
3506 H 15.89235920358571 47.13795760730692 4.340845515702285 H 0.0 **** 0.52
3507 H 15.404133084781794 48.23975608607843 3.4245655600134848 H 0.0 **** 0.52
3508 M 15.259857149628466 47.49306522197886 3.854220416323855 M 0.0 **** -1.04
3509 O 20.61593493831107 27.84641736983817 43.45080816103077 O 0.0 **** 0.0
3510 H 20.637188537036643 27.354709657693007 42.62983347622066 H 0.0 **** 0.52
3511 H 21.52445891299215 28.110507300452706 43.595967612719484 H 0.0 **** 0.52
3512 M 20.7349587677376 27.817279855092448 43.36429542952213 M 0.0 **** -1.04
3513 O 9.688687929488012 17.229871888917184 30.30396244626194 O 0.0 **** 0.0
3514 H 9.667164184090804 16.36545944586005 30.71451843031424 H 0.0 **** 0.52
3515 H 10.6190545943709 17.405799935278704 30.163620605361967 H 0.0 **** 0.52
3516 M 9.805030723425253 17.141736539779192 30.3385527582756 M 0.0 **** -1.04
3517 O 44.098363409845504 5.203545874955543 2.0017376037022867 O 0.0 **** 0.0
3518 H 44.343077392188015 4.430519526622981 1.4930391763098059 H 0.0 **** 0.52
3519 H 44.34707504857628 4.987962071911751 2.900566305886923 H 0.0 **** 0.52
3520 M 44.16152782362191 5.07699172503114 2.0516788734720515 M 0.0 **** -1.04
3521 O 34.39685968632045 11.320412056565704 26.032596760062674 O 0.0 **** 0.0
3522 H 34.02643460860773 11.990980100989649 25.45870562104001 H 0.0 **** 0.52
3523 H 35.30849339769826 11.241093582348501 25.751773993428397 H 0.0 **** 0.52
3524 M 34.466140959256954 11.396098999380362 25.923182773645664 M 0.0 **** -1.04
3525 O 11.082299212235316 2.395418901102744 5.126485926171831 O 0.0 **** 0.0
3526 H 10.713706842363512 2.085483758112659 5.953714804516399 H 0.0 **** 0.52
3527 H 11.443132613954967 1.609962938649133 4.715284468346471 H 0.0 **** 0.52
3528 M 11.081306531249187 2.25519495251271 5.1797426781217855 M 0.0 **** -1.04
3529 O 14.018153829636121 42.44401776317773 28.542204225313412 O 0.0 **** 0.0
3530 H 13.168983758434646 42.40855233686487 28.101886549013614 H 0.0 **** 0.52
3531 H 14.111993819174273 41.58417446195901 28.952196023009037 H 0.0 **** 0.52
3532 M 13.92146296696106 42.32940689541553 28.538322213728577 M 0.0 **** -1.04
3533 O 12.513006182372713 36.95252481152677 38.22632887366978 O 0.0 **** 0.0
3534 H 12.661357950933457 37.49229599460773 39.00277320006949 H 0.0 **** 0.52
3535 H 11.688611888212456 36.49933719516861 38.40303167270434 H 0.0 **** 0.52
3536 M 12.426464155829635 36.96360828031302 38.34834328899224 M 0.0 **** -1.04
3537 O 38.67619524901388 18.88712666084562 35.030785058942776 O 0.0 **** 0.0
3538 H 39.570290959611505 19.228902439714147 35.03398891929927 H 0.0 **** 0.52
3539 H 38.7059470463235 18.131661398616725 35.61782469266756 H 0.0 **** 0.52
3540 M 38.794459572310345 18.83416955687793 35.106343239132585 M 0.0 **** -1.04
3541 O 44.169133614189825 31.317119478124248 16.002670852028583 O 0.0 **** 0.0
3542 H 43.24972676852219 31.46797400186591 15.783212998572079 H 0.0 **** 0.52
3543 H 44.37822844636172 31.998378928934788 16.641726958492562 H 0.0 **** 0.52
3544 M 44.07820417460995 31.423640711339623 16.05638479685631 M 0.0 **** -1.04
3545 O 21.785459034722813 26.94995101293911 46.631582162133014 O 0.0 **** 0.0
3546 H 22.393710145314238 26.546368199601652 46.01240466795914 H 0.0 **** 0.52
3547 H 20.982451509066962 26.435566171238435 46.54902920394157 H 0.0 **** 0.52
3548 M 21.76052787816462 26.83243982145994 46.541751811132755 M 0.0 **** -1.04
3549 O 8.741443313549583 46.22431094370938 43.15829810771292 O 0.0 **** 0.0
3550 H 7.9014642014341705 45.81583468658151 42.94898847755856 H 0.0 **** 0.52
3551 H 8.724832247617108 46.3336498009063 44.10908582495386 H 0.0 **** 0.52
3552 M 8.631788677382026 46.18601758179258 43.25321650727849 M 0.0 **** -1.04
3553 O 3.454023849666706 11.513748833365428 31.67214411822979 O 0.0 **** 0.0
3554 H 3.870339891435736 11.985006007948071 32.39382727467944 H 0.0 **** 0.52
3555 H 3.0926973055144127 12.201606141290402 31.11310463033637 H 0.0 **** 0.52
3556 M 3.4610630490944843 11.662130211721891 31.692964711747425 M 0.0 **** -1.04
3557 O 49.61702323218415 36.79479543516775 47.86951043951436 O 0.0 **** 0.0
3558 H 48.919816042713954 37.006105197771184 47.2486417216705 H 0.0 **** 0.52
3559 H 49.33453314294578 35.97666790330131 48.278282732250496 H 0.0 **** 0.52
3560 M 49.49160992915559 36.71711561073282 47.84236017978748 M 0.0 **** -1.04
3561 O 28.33050800559944 14.94336638953662 26.18813643063865 O 0.0 **** 0.0
3562 H 28.023986180110317 15.780209818648032 25.838901035537575 H 0.0 **** 0.52
3563 H 28.756975779537235 14.515267608451296 25.445785615274147 H 0.0 **** 0.52
3564 M 28.345862099743368 14.995691270635376 26.048399949374684 M 0.0 **** -1.04
3565 O 42.50877243145876 14.482966641375409 0.36677410223937557 O 0.0 **** 0.0
3566 H 43.121764548055516 14.503028629393002 1.1016654904925005 H 0.0 **** 0.52
3567 H 42.13149263435815 13.603644540574235 0.392890347316424 H 0.0 **** 0.52
3568 M 42.53894646301743 14.372970711140583 0.46419174179857947 M 0.0 **** -1.04
3569 O 42.35890987226468 17.505775682432688 36.52032189965406 O 0.0 **** 0.0
3570 H 42.76158718583692 16.637830149985586 36.49295425334702 H 0.0 **** 0.52
3571 H 43.0008149831031 18.0540248839252 36.97155326062131 H 0.0 **** 0.52
3572 M 42.4926291790057 17.464850347362386 36.57458186489627 M 0.0 **** -1.04
3573 O 13.936299972448495 14.532090745122105 48.308853223018836 O 0.0 **** 0.0
3574 H 13.093573462003008 14.335890820438692 47.899530423717636 H 0.0 **** 0.52
3575 H 13.734692160113084 15.198515205887901 48.96571034003403 H 0.0 **** 0.52
3576 M 13.802612608515041 14.592285647966108 48.340541272661085 M 0.0 **** -1.04
3577 O 17.34293308590066 42.81744222985892 47.37891236538637 O 0.0 **** 0.0
3578 H 16.70012751539007 43.33651362422063 46.895597133310226 H 0.0 **** 0.52
3579 H 17.870339988630008 43.46434157689731 47.847518568023105 H 0.0 **** 0.52
3580 M 17.328160994666163 42.966700698303306 47.37702989143095 M 0.0 **** -1.04
3581 O 21.24388267036346 10.483685523477234 47.73808054050302 O 0.0 **** 0.0
3582 H 21.288061191517777 9.956000631286479 48.535467837986396 H 0.0 **** 0.52
3583 H 21.971646828976468 10.169328963354516 47.201640446913146 H 0.0 **** 0.52
3584 M 21.34270094912562 10.37589301012838 47.77148475766804 M 0.0 **** -1.04
3585 O 31.721792054608322 15.90742048665858 13.634798536123846 O 0.0 **** 0.0
3586 H 31.74634542590991 16.801180219338946 13.293009709680668 H 0.0 **** 0.52
3587 H 30.789864581831317 15.694132393112511 13.682218878979029 H 0.0 **** 0.52
3588 M 31.605636892824837 15.994529967747525 13.597115387350748 M 0.0 **** -1.04
3589 O 47.17847865611721 46.03334838150373 9.148456801366393 O 0.0 **** 0.0
3590 H 47.78358452359658 45.551519863592546 8.5846152453962 H 0.0 **** 0.52
3591 H 46.46807539218224 46.30048719367703 8.56519635847016 H 0.0 **** 0.52
3592 M 47.164998896536275 46.005865352891846 9.001613673645117 M 0.0 **** -1.04
3593 O 29.91610588920964 41.32698950739023 5.256868085349103 O 0.0 **** 0.0
3594 H 30.100796431750013 42.26617879093104 5.263299324667482 H 0.0 **** 0.52
3595 H 30.483234954206033 40.9662049724257 5.938358612973422 H 0.0 **** 0.52
3596 M 30.012348421070474 41.40103211089861 5.344930862767909 M 0.0 **** -1.04
3597 O 26.79399710001135 0.5729134177101329 33.49099615624854 O 0.0 **** 0.0
3598 H 25.897341331090285 0.4240473020325908 33.79112399559865 H 0.0 **** 0.52
3599 H 27.120239442237523 -0.29886939668134005 33.267860216398475 H 0.0 **** 0.52
3600 M 26.720976977685268 0.44225764300984594 33.500852553052496 M 0.0 **** -1.04
3601 O 35.88947615505727 31.32877855667394 3.940147226982134 O 0.0 **** 0.0
3602 H 36.514760522596426 30.692209902243327 3.593695855305697 H 0.0 **** 0.52
3603 H 35.49050560993682 30.8891123383022 4.690977735504475 H 0.0 **** 0.52
3604 M 35.918446495059705 31.19100688690128 3.991912945688597 M 0.0 **** -1.04
3605 O 28.704478806686314 19.151736330205015 27.98540883354764 O 0.0 **** 0.0
3606 H 29.48145237782486 18.597592888923966 27.91148497461883 H 0.0 **** 0.52
3607 H 28.19592040671056 18.75860739810246 28.694666650464384 H 0.0 **** 0.52
3608 M 28.738839661763876 19.030473867648407 28.066739602995984 M 0.0 **** -1.04
3609 O 23.094861951194385 14.36378221926909 38.52895701783354 O 0.0 **** 0.0
3610 H 23.941823171218093 14.334995217273255 38.083920571139586 H 0.0 **** 0.52
3611 H 22.45907579126974 14.13878993039666 37.84970463749752 H 0.0 **** 0.52
3612 M 23.121894479536177 14.331294543962153 38.38503365595786 M 0.0 **** -1.04
3613 O 7.128125356832264 12.044587983534841 21.36986717597182 O 0.0 **** 0.0
3614 H 6.829614038261679 12.734465846506831 20.77725531561785 H 0.0 **** 0.52
3615 H 6.58981875565923 12.15225465760201 22.1539994221431 H 0.0 **** 0.52
3616 M 7.021002047194974 12.146684059797774 21.39438376672301 M 0.0 **** -1.04
3617 O 14.13542165223705 33.20095144183277 47.88710278764798 O 0.0 **** 0.0
3618 H 13.609281328861023 33.891111630930865 48.290940487828586 H 0.0 **** 0.52
3619 H 14.03360862814233 33.34131235717129 46.945741726218664 H 0.0 **** 0.52
3620 M 14.055036144983738 33.30726904489686 47.81829383760266 M 0.0 **** -1.04
3621 O 23.1686712932927 33.126136982316666 18.73295711774726 O 0.0 **** 0.0
3622 H 23.977062728245087 33.43462452035452 18.323605854079375 H 0.0 **** 0.52
3623 H 23.301366358162813 32.18506383392166 18.846983420456567 H 0.0 **** 0.52
3624 M 23.289142661268315 33.04515759263205 18.695151717889885 M 0.0 **** -1.04
3625 O 42.95832738684196 36.319140615466175 12.98458784687012 O 0.0 **** 0.0
3626 H 43.33630579027372 36.16608039020229 12.118600757104545 H 0.0 **** 0.52
3627 H 43.49521280800796 35.79300985330808 13.577182322584875 H 0.0 **** 0.52
3628 M 43.07544176131468 36.2321955234244 12.94959051874757 M 0.0 **** -1.04
3629 O 12.430311940479065 18.52912460066507 3.1273760314363463 O 0.0 **** 0.0
3630 H 12.296620474477933 17.701876179099983 2.6647593585017835 H 0.0 **** 0.52
3631 H 13.119064606542437 18.339265025388087 3.7644021112578363 H 0.0 **** 0.52
3632 M 12.501366770351424 18.39892226879641 3.149702258026652 M 0.0 **** -1.04
3633 O 16.7385901194376 18.80767170243181 28.155273547860265 O 0.0 **** 0.0
3634 H 17.162109463679673 18.191386869312048 27.55773416988701 H 0.0 **** 0.52
3635 H 16.22196501915291 18.255945787337396 28.74257816885555 H 0.0 **** 0.52
3636 M 16.726671136409287 18.65815087254414 28.153963651955795 M 0.0 **** -1.04
3637 O 25.338114601048186 41.15404252024555 14.16045159594041 O 0.0 **** 0.0
3638 H 26.07130064157334 40.70922528008868 14.585660882570798 H 0.0 **** 0.52
3639 H 24.77997891870744 40.445081103495056 13.840940956426463 H 0.0 **** 0.52
3640 M 25.36052317609682 41.00634441345506 14.173982383826015 M 0.0 **** -1.04
3641 O 34.924463423098075 12.821406519020805 45.44538705159918 O 0.0 **** 0.0
3642 H 34.692433490037466 11.958161154702095 45.78772973070264 H 0.0 **** 0.52
3643 H 35.35619542574345 13.2617869454251 46.17743975276855 H 0.0 **** 0.52
3644 M 34.95002803413368 12.767274091612462 45.5829225383343 M 0.0 **** -1.04
3645 O 12.574826041955951 17.737042404218187 38.73951711608727 O 0.0 **** 0.0
3646 H 13.259806923643865 18.349567879572376 39.00755382069263 H 0.0 **** 0.52
3647 H 11.869328189159496 18.294554962629846 38.41136792407179 H 0.0 **** 0.52
3648 M 12.572199905846269 17.886822019041247 38.731822268551355 M 0.0 **** -1.04
3649 O 39.06850224521852 22.8944460506949 20.47658818353689 O 0.0 **** 0.0
3650 H 39.25085500623619 23.200916511496885 19.58830270363576 H 0.0 **** 0.52
3651 H 38.40224499692594 23.497377278295616 20.806442242797374 H 0.0 **** 0.52
3652 M 39.0065564511342 23.010860504185025 20.405101998585792 M 0.0 **** -1.04
3653 O 35.18627136065009 13.774858389957835 43.02325421233151 O 0.0 **** 0.0
3654 H 35.05409034918404 13.196791860414173 43.77465002483655 H 0.0 **** 0.52
3655 H 35.012984568175305 13.22172938866376 42.26151365252511 H 0.0 **** 0.52
3656 M 35.14716739134593 13.630051645937915 43.021929871369515 M 0.0 **** -1.04
3657 O 31.872804880185484 17.89297046819148 46.39162448923522 O 0.0 **** 0.0
3658 H 32.3584254368222 17.2781131737282 46.941490083719984 H 0.0 **** 0.52
3659 H 32.387001796711786 17.95265490439786 45.58647332095965 H 0.0 **** 0.52
3660 M 32.00079453500719 17.82190184674083 46.35894480218463 M 0.0 **** -1.04
3661 O 45.687682100230234 24.90878230699613 46.267419444134426 O 0.0 **** 0.0
3662 H 45.923377804591965 24.0231853742859 46.54381364037384 H 0.0 **** 0.52
3663 H 46.44340054551621 25.444528762977058 46.50844787203784 H 0.0 **** 0.52
3664 M 45.8145958285258 24.863997174097392 46.333656488432666 M 0.0 **** -1.04
3665 O 46.38420771284603 6.9109060811888074 41.611005115332915 O 0.0 **** 0.0
3666 H 46.22647610983438 6.439030822352615 40.79327387483096 H 0.0 **** 0.52
3667 H 46.54006285625665 6.223444549325883 42.25856605560986 H 0.0 **** 0.52
3668 M 46.3839668890605 6.762495729502058 41.5892215939888 M 0.0 **** -1.04
3669 O 42.19704239198065 49.138958201316754 33.61910329141427 O 0.0 **** 0.0
3670 H 41.697428416972386 48.66172363982291 34.281570443153264 H 0.0 **** 0.52
3671 H 43.049988187031865 48.70485049134427 33.60288481331543 H 0.0 **** 0.52
3672 M 42.2422727964343 49.02229469664493 33.70183065840153 M 0.0 **** -1.04
3673 O 47.94736395374513 42.966748073622526 21.99140589657221 O 0.0 **** 0.0
3674 H 48.4869480357898 42.417268339370565 22.559868998189835 H 0.0 **** 0.52
3675 H 47.73836212813248 42.40639261518794 21.24404446576951 H 0.0 **** 0.52
3676 M 47.98968288523691 42.82467510048769 21.96850425566967 M 0.0 **** -1.04
3677 O 26.203001619116673 10.087087248582769 0.7429573857062621 O 0.0 **** 0.0
3678 H 26.08254734917839 11.032499380566065 0.6539894441691416 H 0.0 **** 0.52
3679 H 25.59343666379847 9.831597257058121 1.4353334877697108 H 0.0 **** 0.52
3680 M 26.109550045727538 10.175405612672662 0.8202012434593513 M 0.0 **** -1.04
3681 O 25.101436964415484 11.873290015011008 21.85801523056247 O 0.0 **** 0.0
3682 H 25.277202386472037 12.778737667027542 22.11394470768929 H 0.0 **** 0.52
3683 H 25.633105282626822 11.738089675166641 21.073618576271617 H 0.0 **** 0.52
3684 M 25.191997199596265 11.971890971747086 21.790364842472375 M 0.0 **** -1.04
3685 O 25.247845939758285 1.9493898280951356 42.97003080961603 O 0.0 **** 0.0
3686 H 24.757830776161043 1.3371324737625443 43.518896701140406 H 0.0 **** 0.52
3687 H 25.229090866103164 1.557071393612894 42.09712576409961 H 0.0 **** 0.52
3688 M 25.182716762689545 1.8207919831868296 42.92854975355067 M 0.0 **** -1.04
3689 O 12.638138453952244 15.333053789355343 12.917827837870055 O 0.0 **** 0.0
3690 H 13.124491486086228 15.545915792720775 13.714306717480412 H 0.0 **** 0.52
3691 H 12.984701373879275 15.933060361049472 12.257436895212187 H 0.0 **** 0.52
3692 M 12.74476186583631 15.43711163368825 12.935248624304352 M 0.0 **** -1.04
3693 O 49.44391797109359 20.21579816746984 35.89903625467298 O 0.0 **** 0.0
3694 H 50.1197671916194 20.40737996876751 36.54923144706886 H 0.0 **** 0.52
3695 H 48.82550177595112 20.942508217838284 35.97441917624362 H 0.0 **** 0.52
3696 M 49.451270248458115 20.33335172986705 35.9919197148759 M 0.0 **** -1.04
3697 O 28.795406155487765 28.208895919359005 34.58956279802108 O 0.0 **** 0.0
3698 H 28.961368892403872 27.3751329102497 34.14965009707484 H 0.0 **** 0.52
3699 H 28.053986730601768 28.586512198616717 34.11634875285992 H 0.0 **** 0.52
3700 M 28.721740233536302 28.1505032923735 34.47267061472057 M 0.0 **** -1.04
3701 O 2.8649488852748517 36.980944930054356 3.846025975964916 O 0.0 **** 0.0
3702 H 3.708400606827305 37.15873731515498 4.2622092037320165 H 0.0 **** 0.52
3703 H 2.943229458866901 36.085073593228984 3.518130484695183 H 0.0 **** 0.52
3704 M 2.9829416746956436 36.889022489431035 3.8573284516033586 M 0.0 **** -1.04
3705 O 18.12716965739432 49.723673145157015 47.71447194790401 O 0.0 **** 0.0
3706 H 19.00469505437575 49.99613588508711 47.98269154990961 H 0.0 **** 0.52
3707 H 17.926808048820035 50.27235800748034 46.95616525804203 H 0.0 **** 0.52
3708 M 18.213854991554275 49.828790949240485 47.651734179604034 M 0.0 **** -1.04
3709 O 46.08795832233316 28.638048443068225 31.373076256134624 O 0.0 **** 0.0
3710 H 46.90388998746238 28.82897945228649 31.835710803836232 H 0.0 **** 0.52
3711 H 46.317118715932104 27.93871628684385 30.760990284907667 H 0.0 **** 0.52
3712 M 46.22174326220941 28.57296648842714 31.353944479364124 M 0.0 **** -1.04
3713 O 45.61073927175249 43.290619964683046 42.39922481598993 O 0.0 **** 0.0
3714 H 44.742178609515214 43.00118487826172 42.67861631449435 H 0.0 **** 0.52
3715 H 45.4444056940653 43.853699229134726 41.643246423091924 H 0.0 **** 0.52
3716 M 45.47826008201253 43.32564988415716 42.33821529674508 M 0.0 **** -1.04
3717 O 36.529009185816086 17.455381809085843 34.1286382310143 O 0.0 **** 0.0
3718 H 37.170161388220826 18.118959348178553 34.38323061034426 H 0.0 **** 0.52
3719 H 35.920486601540276 17.918150506855767 33.552640367630865 H 0.0 **** 0.52
3720 M 36.533185579894365 17.59956812417056 34.08749440145524 M 0.0 **** -1.04
3721 O 33.381226079846186 19.1277586642495 41.00302113842118 O 0.0 **** 0.0
3722 H 34.019891497465416 19.427993296410907 40.35634136852394 H 0.0 **** 0.52
3723 H 32.56220656771695 19.050758334746053 40.513628385052165 H 0.0 **** 0.52
3724 M 33.358139161413526 19.15633495955812 40.85758901574974 M 0.0 **** -1.04
3725 O 22.37379090454257 5.392106365299881 1.2430475713516702 O 0.0 **** 0.0
3726 H 22.241755410635506 5.67147613673076 0.33709631270423546 H 0.0 **** 0.52
3727 H 22.028881573230276 6.1134290821088655 1.7693173915983929 H 0.0 **** 0.52
3728 M 22.312736104431853 5.520207035342331 1.1944431498027968 M 0.0 **** -1.04
3729 O 13.070023639226802 3.988163145724535 6.114046129161473 O 0.0 **** 0.0
3730 H 12.537839304522574 3.2657293414398723 5.7807321829725 H 0.0 **** 0.52
3731 H 12.693431205609158 4.769952632120209 5.710051061562886 H 0.0 **** 0.52
3732 M 12.953688716893826 3.9957616021444906 6.019661381432762 M 0.0 **** -1.04
3733 O 9.626433242909584 23.80342519331069 24.905531541169278 O 0.0 **** 0.0
3734 H 9.306263344336996 22.96575654686075 25.24024310476434 H 0.0 **** 0.52
3735 H 8.968748543361896 24.44049971684444 25.18448395121555 H 0.0 **** 0.52
3736 M 9.501256035326259 23.777746929952595 24.984088308532534 M 0.0 **** -1.04
3737 O 46.17784103020497 41.307258303946 23.61945852348954 O 0.0 **** 0.0
3738 H 46.61759564261768 42.00466114790063 23.13317290637329 H 0.0 **** 0.52
3739 H 45.400502162131964 41.725869899598784 23.989240750410165 H 0.0 **** 0.52
3740 M 46.13462543814743 41.45012199060546 23.604544958014905 M 0.0 **** -1.04
3741 O 19.856535651701886 18.40618781809856 24.880170927928805 O 0.0 **** 0.0
3742 H 20.164265471183878 17.71083741418851 24.29877743800875 H 0.0 **** 0.52
3743 H 18.991489277737855 18.113725109233183 25.167206689546617 H 0.0 **** 0.52
3744 M 19.785192043536124 18.279735897767125 24.842489612354623 M 0.0 **** -1.04
3745 O 45.17878293639724 33.186794604152105 44.671274274157945 O 0.0 **** 0.0
3746 H 45.66088875899951 33.43622692784685 45.459681596415756 H 0.0 **** 0.52
3747 H 45.65593841596995 33.60637764619055 43.95538194084517 H 0.0 **** 0.52
3748 M 45.30157964716698 33.272437182589364 44.68055706408015 M 0.0 **** -1.04
3749 O 38.71101862682053 32.511138416539026 43.47166535565254 O 0.0 **** 0.0
3750 H 38.13466160859082 32.981070341932025 42.86899987429835 H 0.0 **** 0.52
3751 H 38.45687102895876 32.82401082977046 44.33985272661396 H 0.0 **** 0.52
3752 M 38.604703655328194 32.61134683418376 43.50565586136698 M 0.0 **** -1.04
3753 O 11.112503694531064 40.84088828830879 20.144625655627124 O 0.0 **** 0.0
3754 H 10.93564828229259 39.9119888172181 19.995977683100577 H 0.0 **** 0.52
3755 H 10.583345514163533 41.293986134939516 19.48817848819124 H 0.0 **** 0.52
3756 M 11.022124652961566 40.77997985058534 20.041562797729192 M 0.0 **** -1.04
3757 O 22.249807215225335 23.251509044210724 14.57759449407883 O 0.0 **** 0.0
3758 H 21.423698948891232 22.899738897858526 14.909304997196813 H 0.0 **** 0.52
3759 H 22.1727400451156 24.198102351661447 14.69697200779369 H 0.0 **** 0.52
3760 M 22.134189413782433 23.327653546629094 14.6353393998452 M 0.0 **** -1.04
3761 O 1.9124248502844807 32.81453688328952 25.706357916915366 O 0.0 **** 0.0
3762 H 2.3099858442352144 32.19853156547678 25.090962207533742 H 0.0 **** 0.52
3763 H 0.972628112630538 32.6442811346442 25.642933933303468 H 0.0 **** 0.52
3764 M 1.843011738516367 32.71388561801391 25.619460664386388 M 0.0 **** -1.04
3765 O 11.191841586779617 34.14609094129396 3.3375207956048825 O 0.0 **** 0.0
3766 H 11.169867383849553 34.98166453531058 2.8710855183721553 H 0.0 **** 0.52
3767 H 11.176031682436864 33.48463073353699 2.6458194289905057 H 0.0 **** 0.52
3768 M 11.187004840570506 34.168380247801565 3.189264501426424 M 0.0 **** -1.04
3769 O 1.2177663251013229 35.2722783825236 7.397506645012205 O 0.0 **** 0.0
3770 H 0.9577408291127014 35.273031215209144 6.476302725815997 H 0.0 **** 0.52
3771 H 0.5733283766739135 34.710736255826276 7.8283176371068075 H 0.0 **** 0.52
3772 M 1.101983166466141 35.20049041284953 7.334730445322152 M 0.0 **** -1.04
3773 O 34.818364074268914 45.68132968816711 10.273150161861025 O 0.0 **** 0.0
3774 H 35.17412558712784 46.559727482505906 10.407612276054948 H 0.0 **** 0.52
3775 H 35.580214594304124 45.14475521946997 10.054285614129142 H 0.0 **** 0.52
3776 M 34.96143275813453 45.72508715488602 10.262345365319064 M 0.0 **** -1.04
3777 O 1.0187247677053048 15.93834203786382 35.82851068701986 O 0.0 **** 0.0
3778 H 0.3195082883056125 16.589717804931226 35.88359701107011 H 0.0 **** 0.52
3779 H 1.7889938710906876 16.435754589639544 35.55374535886699 H 0.0 **** 0.52
3780 M 1.0278204990843862 16.085401538847066 35.80038888993571 M 0.0 **** -1.04
3781 O 29.987889222977063 7.152245663381122 23.4943741840158 O 0.0 **** 0.0
3782 H 29.045188165234208 7.301973061348334 23.422778656398616 H 0.0 **** 0.52
3783 H 30.082001412911783 6.199943105149729 23.47219632744804 H 0.0 **** 0.52
3784 M 29.879259033975504 7.049506112339569 23.4823706967195 M 0.0 **** -1.04
3785 O 28.140904348403907 41.55713476937592 15.043674169978274 O 0.0 **** 0.0
3786 H 28.378004698190793 41.28096954547512 15.928967370917398 H 0.0 **** 0.52
3787 H 28.879748297240013 41.28246446519859 14.500630788798931 H 0.0 **** 0.52
3788 M 28.265837751038447 41.4866213604019 15.087486746072663 M 0.0 **** -1.04
3789 O 42.822300899124755 25.791742564689514 13.077941195837184 O 0.0 **** 0.0
3790 H 43.55643258693971 25.184971848117378 13.173383582611393 H 0.0 **** 0.52
3791 H 42.38547914560042 25.775770386191212 13.929505510260697 H 0.0 **** 0.52
3792 M 42.86035961356635 25.712023957852452 13.199170069877276 M 0.0 **** -1.04
3793 O 42.83692897494301 10.874424389128436 32.09897735627273 O 0.0 **** 0.0
3794 H 43.17488881711137 10.428383358050027 32.875545389695986 H 0.0 **** 0.52
3795 H 42.58783713250978 10.166422841967933 31.504910019350906 H 0.0 **** 0.52
3796 M 42.84830528358582 10.726692906511115 32.12234005436918 M 0.0 **** -1.04
3797 O 46.31407755403026 0.7191674854763548 11.020038821768948 O 0.0 **** 0.0
3798 H 47.10247442944799 0.9320549949764327 11.519375276300842 H 0.0 **** 0.52
3799 H 46.58258048929075 0.006852863058703917 10.439743178152202 H 0.0 **** 0.52
3800 M 46.449373442748154 0.6552345598594229 11.00967493354602 M 0.0 **** -1.04
3801 O 17.07903736428202 22.24432917779539 48.73560811498534 O 0.0 **** 0.0
3802 H 17.40303957080553 22.98512980975969 48.22329366456357 H 0.0 **** 0.52
3803 H 16.28887338627078 22.575187272843152 49.162694596312704 H 0.0 **** 0.52
3804 M 17.01936261901632 22.38151492187267 48.72469781799441 M 0.0 **** -1.04
3805 O 6.933719839229241 19.48929465731679 45.74196931550398 O 0.0 **** 0.0
3806 H 6.785053095135453 19.592049342529904 46.68195280684992 H 0.0 **** 0.52
3807 H 6.3199644556437775 18.80486897440189 45.475332457044885 H 0.0 **** 0.52
3808 M 6.836120211890801 19.414833819443498 45.82816669576346 M 0.0 **** -1.04
3809 O 6.9356039610033875 44.675670920765924 34.47915658131761 O 0.0 **** 0.0
3810 H 6.755577344875135 43.74220015789813 34.59074204009398 H 0.0 **** 0.52
3811 H 6.272475579493538 45.1134483702288 35.012859203771185 H 0.0 **** 0.52
3812 M 6.827669349960253 44.61221555840205 34.56176141474299 M 0.0 **** -1.04
3813 O 36.29787216026531 21.402466058055957 41.347930489311665 O 0.0 **** 0.0
3814 H 36.52158275470877 22.246448801138705 41.74019931900075 H 0.0 **** 0.52
3815 H 35.846299811800435 21.62798575108022 40.534632873122156 H 0.0 **** 0.52
3816 M 36.26870262615364 21.539375596537948 41.29403323489768 M 0.0 **** -1.04
3817 O 21.227463669122297 29.95608364976489 45.731049709853714 O 0.0 **** 0.0
3818 H 21.888205986064943 30.09056392455408 46.41043514617322 H 0.0 **** 0.52
3819 H 20.996405000792336 29.029828304323726 45.80098927239464 H 0.0 **** 0.52
3820 M 21.282468137850863 29.85472617630522 45.82697311325332 M 0.0 **** -1.04
3821 O 44.5741040193029 47.54780914872286 33.84533897901109 O 0.0 **** 0.0
3822 H 45.42307838873385 47.158113910067655 33.63651035631886 H 0.0 **** 0.52
3823 H 44.0877232646978 46.84593045365701 34.27780809074071 H 0.0 **** 0.52
3824 M 44.62052041086756 47.40807345025722 33.87396749333561 M 0.0 **** -1.04
3825 O 8.809503111580241 23.27308065159609 36.69081380804429 O 0.0 **** 0.0
3826 H 8.570876043604045 22.346226404766476 36.6757513750284 H 0.0 **** 0.52
3827 H 8.03214936944486 23.715524241371906 37.03168492914839 H 0.0 **** 0.52
3828 M 8.679444959765704 23.21106979507452 36.73252175282741 M 0.0 **** -1.04
3829 O 21.94251809475015 6.386366461675276 29.843781561471488 O 0.0 **** 0.0
3830 H 22.134177294283795 7.271695404158902 29.53444653528811 H 0.0 **** 0.52
3831 H 21.497370002150085 6.515864088722972 30.681219727306726 H 0.0 **** 0.52
3832 M 21.91006816486828 6.5162773093644475 29.911385516890817 M 0.0 **** -1.04
3833 O 38.67076511311791 21.833434205499454 23.78724269443972 O 0.0 **** 0.0
3834 H 39.484709252132085 21.38103937766895 23.56573936136696 H 0.0 **** 0.52
3835 H 38.63935073166861 22.578511886644474 23.18715789140071 H 0.0 **** 0.52
3836 M 38.770939423323554 21.870901285086518 23.682069308034063 M 0.0 **** -1.04
3837 O 29.92129510528171 7.116688489553706 20.388812396957878 O 0.0 **** 0.0
3838 H 30.761226568930475 7.5113840825209905 20.154377800275647 H 0.0 **** 0.52
3839 H 29.557376783992567 7.7030778623110185 21.052092562291417 H 0.0 **** 0.52
3840 M 29.98223136944575 7.242279957007294 20.443709539047404 M 0.0 **** -1.04
3841 O 35.67857955137432 28.980632869571224 34.25385169636808 O 0.0 **** 0.0
3842 H 35.61896173520294 29.77488172518248 34.78474145646366 H 0.0 **** 0.52
3843 H 34.76956431355859 28.71131661711415 34.121982992300445 H 0.0 **** 0.52
3844 M 35.55458217138333 29.047830602337257 34.30493125006111 M 0.0 **** -1.04
3845 O 29.330693976232816 18.506041903490928 10.359496656145316 O 0.0 **** 0.0
3846 H 29.167357071942863 18.588348757676787 11.29905790100665 H 0.0 **** 0.52
3847 H 28.45897094911428 18.497496208252826 9.964206490659793 H 0.0 **** 0.52
3848 M 29.198193878708654 18.515484927440994 10.429170527106919 M 0.0 **** -1.04
3849 O 6.7886426511841425 20.47060865755239 12.997140551053391 O 0.0 **** 0.0
3850 H 5.885146011795057 20.517488354338735 13.309748008413216 H 0.0 **** 0.52
3851 H 7.060652365680731 21.38433298317901 12.911428810546127 H 0.0 **** 0.52
3852 M 6.707804811443923 20.593578231878947 13.026186435737536 M 0.0 **** -1.04
3853 O 27.22291473862532 6.361455687920062 39.48094321172774 O 0.0 **** 0.0
3854 H 28.08567637016366 6.006281295447442 39.26711806922462 H 0.0 **** 0.52
3855 H 27.38297806091719 6.955658465066978 40.21410958111346 H 0.0 **** 0.52
3856 M 27.353848980591266 6.39205432229317 39.54742584883184 M 0.0 **** -1.04
3857 O 29.225536199173696 37.83971483719361 20.656600325187952 O 0.0 **** 0.0
3858 H 29.466984618865816 36.91393144421489 20.685872304137547 H 0.0 **** 0.52
3859 H 30.041169929252884 38.30633415277968 20.83891074644444 H 0.0 **** 0.52
3860 M 29.360856095143404 37.7809368458825 20.683685540955864 M 0.0 **** -1.04
3861 O 14.482017450916402 23.117679051351626 14.805774487090233 O 0.0 **** 0.0
3862 H 15.17093909580116 22.465314746948238 14.679144062908222 H 0.0 **** 0.52
3863 H 14.929514433514882 23.959321413957372 14.71852208460966 H 0.0 **** 0.52
3864 M 14.627493658344207 23.141909242609085 14.778394740596724 M 0.0 **** -1.04
3865 O 14.144561566510973 42.077623230766584 17.78460411293605 O 0.0 **** 0.0
3866 H 14.661377776799101 42.201466340277626 16.988492540807385 H 0.0 **** 0.52
3867 H 14.586943458268427 42.612684304979055 18.44357146248139 H 0.0 **** 0.52
3868 M 14.267350627123093 42.16197146597104 17.767047634904017 M 0.0 **** -1.04
3869 O 7.238213012097353 37.66634179707388 49.820837481497584 O 0.0 **** 0.0
3870 H 6.6197470802461895 37.96045951846223 50.48958572759534 H 0.0 **** 0.52
3871 H 7.576525124398813 36.83580751065634 50.15547972701514 H 0.0 **** 0.52
3872 M 7.202350067684071 37.59767440851301 49.94928449507999 M 0.0 **** -1.04
3873 O 3.843037884278683 29.352323954931272 25.123485581382248 O 0.0 **** 0.0
3874 H 4.20294989565932 30.10751794951919 25.5886459899085 H 0.0 **** 0.52
3875 H 4.607731102144466 28.912639236121244 24.751799290486222 H 0.0 **** 0.52
3876 M 3.9870010643457094 29.392713183422863 25.135451426435726 M 0.0 **** -1.04
3877 O 29.455862351472664 0.4662760823413805 16.980392672950053 O 0.0 **** 0.0
3878 H 28.960650499977827 -0.30517567406845814 16.70497230395621 H 0.0 **** 0.52
3879 H 29.329802751376736 0.5065165058043988 17.92839999144904 H 0.0 **** 0.52
3880 M 29.376331402089008 0.37267165421001636 17.066492217242235 M 0.0 **** -1.04
3881 O 19.51800108860316 6.10113241388319 17.004610878902398 O 0.0 **** 0.0
3882 H 19.39645931814112 5.154343659756343 17.075649665651113 H 0.0 **** 0.52
3883 H 19.029628923268945 6.347517307079497 16.219107595992483 H 0.0 **** 0.52
3884 M 19.43992478275826 6.011472392217246 16.913150214890642 M 0.0 **** -1.04
3885 O 3.1583153401070803 42.31946623585985 46.5576988535657 O 0.0 **** 0.0
3886 H 3.103954806181342 42.62888076425597 47.46187567340245 H 0.0 **** 0.52
3887 H 3.9628660169003638 42.711242344625084 46.21793845067323 H 0.0 **** 0.52
3888 M 3.254348646093071 42.40922813457435 46.62995142741314 M 0.0 **** -1.04
3889 O 32.59339955925237 0.714945985780002 22.238250997011352 O 0.0 **** 0.0
3890 H 33.248959777353264 0.906865633115111 22.908800736085926 H 0.0 **** 0.52
3891 H 32.20013888401824 -0.112072963983195 22.516843491076944 H 0.0 **** 0.52
3892 M 32.62697734241399 0.6336458239578052 22.35975314030789 M 0.0 **** -1.04
3893 O 24.867836748346576 31.35889154520999 42.344524798497595 O 0.0 **** 0.0
3894 H 25.072863329522647 32.18030253177581 41.89789814670662 H 0.0 **** 0.52
3895 H 23.930114591122475 31.413441088334373 42.5287232434848 H 0.0 **** 0.52
3896 M 24.774042861767867 31.4710254576211 42.3109306405109 M 0.0 **** -1.04
3897 O 15.333797726290824 14.272028419040446 40.18296094294947 O 0.0 **** 0.0
3898 H 15.315025322571511 13.402815217368726 39.78252915898914 H 0.0 **** 0.52
3899 H 15.76905326175002 14.138983256606764 41.02503035205635 H 0.0 **** 0.52
3900 M 15.38711324190955 14.143726700073493 40.23949613296789 M 0.0 **** -1.04
3901 O 23.525646692812487 15.433468357772751 26.567493178634212 O 0.0 **** 0.0
3902 H 23.264740021529605 15.890052011776566 27.36729864751132 H 0.0 **** 0.52
3903 H 24.19946623033404 14.8162202238712 26.852451700321833 H 0.0 **** 0.52
3904 M 23.57850428721912 15.412901777602293 26.706357100524095 M 0.0 **** -1.04
3905 O 40.359054152970316 36.19239885279005 31.44518578875494 O 0.0 **** 0.0
3906 H 40.39497247607463 35.54342707911494 32.14787624218189 H 0.0 **** 0.52
3907 H 39.52295381889292 36.64010897255131 31.574495528438508 H 0.0 **** 0.52
3908 M 40.25662081699939 36.16663467422943 31.551691741668204 M 0.0 **** -1.04
3909 O 19.372842892012976 42.83745734893119 3.144632399913732 O 0.0 **** 0.0
3910 H 19.614588461544145 42.43538778631176 2.31028979455089 H 0.0 **** 0.52
3911 H 19.63292926597791 42.19507696720123 3.8048825514342255 H 0.0 **** 0.52
3912 M 19.43708395971324 42.70375462228329 3.122346836747468 M 0.0 **** -1.04
3913 O 13.086821500399523 11.9854804697581 5.758838118109239 O 0.0 **** 0.0
3914 H 13.118241386357063 11.35779240300444 6.4808145967573765 H 0.0 **** 0.52
3915 H 12.467956680214115 12.655212602977306 6.049858528112104 H 0.0 **** 0.52
3916 M 13.011621518652476 11.99086275202949 5.888514490081114 M 0.0 **** -1.04
3917 O 19.172293592214462 44.72786406966994 10.843916556645603 O 0.0 **** 0.0
3918 H 19.58722398270318 45.15454573042484 10.09424714110417 H 0.0 **** 0.52
3919 H 19.415923803735552 45.27036830881387 11.593958263279283 H 0.0 **** 0.52
3920 M 19.25659761092358 44.851932740870424 10.84396477528901 M 0.0 **** -1.04
3921 O 29.009235582216665 19.343339232308665 16.830773336446086 O 0.0 **** 0.0
3922 H 29.778650589842165 18.89662335380225 16.477680140390277 H 0.0 **** 0.52
3923 H 28.34169562551006 18.659994904345243 16.891277974387165 H 0.0 **** 0.52
3924 M 29.022276872019795 19.198677399378575 16.793317648979723 M 0.0 **** -1.04
3925 O 37.382730977999415 41.73611276935283 37.780068422705234 O 0.0 **** 0.0
3926 H 38.112313645136354 41.68964514487899 37.16218545541277 H 0.0 **** 0.52
3927 H 37.32388509614485 40.854687347493154 38.14865360724777 H 0.0 **** 0.52
3928 M 37.4685936479826 41.61733102236386 37.748155388571675 M 0.0 **** -1.04
3929 O 38.723269521630016 42.30639086368664 15.81729582990603 O 0.0 **** 0.0
3930 H 39.03138476815897 42.64594128120385 16.657533226809075 H 0.0 **** 0.52
3931 H 37.85208717247532 42.68793973243328 15.709173884614676 H 0.0 **** 0.52
3932 M 38.65118949633274 42.39870092660317 15.91101555271555 M 0.0 **** -1.04
3933 O 3.0204494951658347 20.04843751227703 17.370792266124866 O 0.0 **** 0.0
3934 H 2.9179480368526285 20.883849441654732 16.91493131784955 H 0.0 **** 0.52
3935 H 2.469965828140701 19.438168734265318 16.880110613999946 H 0.0 **** 0.52
3936 M 2.9368589212447773 20.077258237847488 17.24962268357565 M 0.0 **** -1.04
3937 O 19.985237210665318 13.00839407656628 5.40530947090856 O 0.0 **** 0.0
3938 H 20.571898172668966 13.117221630203353 4.656834855974741 H 0.0 **** 0.52
3939 H 19.892848522580294 13.88942342583158 5.767909720354271 H 0.0 **** 0.52
3940 M 20.04851068549317 13.135108227355463 5.355913301603788 M 0.0 **** -1.04
3941 O 12.1968806665701 44.03568143176401 48.71381245147156 O 0.0 **** 0.0
3942 H 12.185604616234812 44.919881783355954 48.34735677581637 H 0.0 **** 0.52
3943 H 11.383255198763909 43.97284805177211 49.214107424640716 H 0.0 **** 0.52
3944 M 12.091282707171224 44.14082630495731 48.73094594638558 M 0.0 **** -1.04
3945 O 10.442138694734538 36.66259004494795 33.71429312595699 O 0.0 **** 0.0
3946 H 10.678190261427808 36.42198777051101 32.81840305872365 H 0.0 **** 0.52
3947 H 9.87894771188504 35.94897751990714 34.013963719462325 H 0.0 **** 0.52
3948 M 10.400260953395055 36.54043826523744 33.63796906881341 M 0.0 **** -1.04
3949 O 37.530657962915114 8.32060050470983 24.161053776217894 O 0.0 **** 0.0
3950 H 36.98788663436076 7.968826639433004 24.866661922430502 H 0.0 **** 0.52
3951 H 38.135658184047216 8.91909204043489 24.599246746477117 H 0.0 **** 0.52
3952 M 37.53862421912007 8.352183343125617 24.307475223078253 M 0.0 **** -1.04
3953 O 38.457352018561764 16.019253749070174 10.320314832737695 O 0.0 **** 0.0
3954 H 37.65547879612052 16.108742210868215 10.835309165702883 H 0.0 **** 0.52
3955 H 39.127888322241795 15.779558394557192 10.959967440193925 H 0.0 **** 0.52
3956 M 38.44053928757891 16.00002542509479 10.468123652481255 M 0.0 **** -1.04
3957 O 9.307402612604484 31.835325316058814 10.931352772166797 O 0.0 **** 0.0
3958 H 9.33932790184717 30.902710989372533 11.144519575715828 H 0.0 **** 0.52
3959 H 8.544818332027546 32.16430911925062 11.407234994247494 H 0.0 **** 0.52
3960 M 9.213868971687319 31.758053220515258 11.01955977547201 M 0.0 **** -1.04
3961 O 46.31180753364437 20.096075602683694 28.930814969595655 O 0.0 **** 0.0
3962 H 46.08663662820687 20.53679110847558 28.111487757824225 H 0.0 **** 0.52
3963 H 45.66095778926867 19.399302916486672 29.01526434755049 H 0.0 **** 0.52
3964 M 46.19966610747775 20.063297106274256 28.83674109637648 M 0.0 **** -1.04
3965 O 4.764304176496227 6.65698555377238 14.58179677839861 O 0.0 **** 0.0
3966 H 5.052693862015565 5.849318007132872 14.15666951868328 H 0.0 **** 0.52
3967 H 5.5754506620792625 7.113510469876211 14.805079285188473 H 0.0 **** 0.52
3968 M 4.9050590619502294 6.612034584434205 14.555958986438378 M 0.0 **** -1.04
3969 O 7.674034780377576 6.138708776077351 12.267725843003277 O 0.0 **** 0.0
3970 H 8.408305635710708 5.862255322985504 12.816040375183412 H 0.0 **** 0.52
3971 H 7.797508526549096 7.081644765901807 12.158842762186765 H 0.0 **** 0.52
3972 M 7.783836841416653 6.224027638854409 12.323979138613637 M 0.0 **** -1.04
3973 O 42.954250908062136 15.923659602152323 8.171420067025794 O 0.0 **** 0.0
3974 H 42.50221078608891 15.958965322087337 9.014416219908888 H 0.0 **** 0.52
3975 H 42.623199315967724 15.128050399118166 7.7547203416113115 H 0.0 **** 0.52
3976 M 42.85400545849766 15.826331467636695 8.225991809185375 M 0.0 **** -1.04
3977 O 41.72985997404138 30.43261999175665 3.522111323559841 O 0.0 **** 0.0
3978 H 41.4533263623666 30.34842033625729 4.434618187854539 H 0.0 **** 0.52
3979 H 42.03942019873718 31.33529902431937 3.4474723265947134 H 0.0 **** 0.52
3980 M 41.73408821905615 30.537395785839863 3.6293690435772277 M 0.0 **** -1.04
3981 O 18.944131924606694 2.357819147888037 6.89456553689633 O 0.0 **** 0.0
3982 H 19.457356766370093 2.1895888990637786 7.684835596323232 H 0.0 **** 0.52
3983 H 19.567663612592174 2.7479295426202057 6.281988972078494 H 0.0 **** 0.52
3984 M 19.089651075080447 2.3862223029668073 6.917312509903148 M 0.0 **** -1.04
3985 O 45.96923248159637 24.126647047126745 1.658497321929211 O 0.0 **** 0.0
3986 H 45.46499718442221 24.06275270484351 2.4696026151177506 H 0.0 **** 0.52
3987 H 45.32215142680038 24.35448359104869 0.9909611440696224 H 0.0 **** 0.52
3988 M 45.82185004205408 24.147633680386853 1.6768757157914749 M 0.0 **** -1.04
3989 O 44.9456441724897 13.163701075337727 24.80401783612409 O 0.0 **** 0.0
3990 H 44.18688989316823 13.687477413680973 24.54676751295088 H 0.0 **** 0.52
3991 H 45.68670951427294 13.765859641118567 24.737267319983104 H 0.0 **** 0.52
3992 M 44.94337973771765 13.307834947502258 24.762542069609026 M 0.0 **** -1.04
3993 O 29.531942346876495 0.2563853745570612 22.368907600988692 O 0.0 **** 0.0
3994 H 28.690998549159268 -0.18551250162119715 22.251570203501586 H 0.0 **** 0.52
3995 H 29.820090601446203 0.46390618352765284 21.48001302065839 H 0.0 **** 0.52
3996 M 29.461177369770112 0.22638233158284088 22.24009709771967 M 0.0 **** -1.04
3997 O 6.946281691379185 31.964068683615743 29.244924601454997 O 0.0 **** 0.0
3998 H 7.177818450080812 32.126814269003816 30.15932818271216 H 0.0 **** 0.52
3999 H 7.262834743215531 31.07756554681398 29.071329124074296 H 0.0 **** 0.52
4000 M 7.016443951441392 31.87141781754174 29.339757194900926 M 0.0 **** -1.04
4001 O 7.212923769224688 28.38659931122868 31.116774265700833 O 0.0 **** 0.0
4002 H 7.2396785730421005 27.62209468187216 30.541408755068037 H 0.0 **** 0.52
4003 H 7.453527587455403 29.12078002044836 30.551692197010734 H 0.0 **** 0.52
4004 M 7.247148808042927 28.382718061728472 30.97078217136283 M 0.0 **** -1.04
4005 O 24.832516782859955 29.24592199158789 35.88419471442654 O 0.0 **** 0.0
4006 H 25.493730988789682 29.500010852670048 35.2404063104264 H 0.0 **** 0.52
4007 H 24.1845125042419 29.949741572400562 35.85325518922441 H 0.0 **** 0.52
4008 M 24.834207952960682 29.368547129093553 35.79782084571374 M 0.0 **** -1.04
4009 O 45.104874580901274 36.6876048415772 43.433316141195974 O 0.0 **** 0.0
4010 H 44.62700235052591 37.46173402941835 43.13567419146921 H 0.0 **** 0.52
4011 H 44.97815961920208 36.67740812251901 44.38203505309701 H 0.0 **** 0.52
4012 M 45.027480123678465 36.78539836914969 43.51666204188765 M 0.0 **** -1.04
4013 O 15.98364929099207 49.96567951394166 2.56660137916527 O 0.0 **** 0.0
4014 H 15.533729120740624 50.11854838206391 1.7356794861720317 H 0.0 **** 0.52
4015 H 16.875960097106056 49.726584176901184 2.3159148723499925 H 0.0 **** 0.52
4016 M 16.040281233404844 49.95464062473979 2.4281420951076953 M 0.0 **** -1.04
4017 O 44.12598991937099 8.84927097150505 42.148567265398825 O 0.0 **** 0.0
4018 H 43.450209694499186 8.221485635724292 42.404371324330775 H 0.0 **** 0.52
4019 H 44.892699176867396 8.310413497059372 41.95358559651548 H 0.0 **** 0.52
4020 M 44.13763041699654 8.69992559976891 42.1563537661552 M 0.0 **** -1.04
4021 O 4.327653470867794 38.075684995085126 31.203029826328205 O 0.0 **** 0.0
4022 H 4.613758960620366 38.442998566339575 30.36669622190969 H 0.0 **** 0.52
4023 H 5.084630103946836 38.175193540322375 31.78036272566621 H 0.0 **** 0.52
4024 M 4.461181283662256 38.13544478646022 31.169874177003663 M 0.0 **** -1.04
4025 O 40.70056287067104 37.22115538223092 9.28944875851907 O 0.0 **** 0.0
4026 H 40.47602995522285 37.87211072421459 8.624564174371496 H 0.0 **** 0.52
4027 H 39.99221249591919 37.27885221701963 9.930649535221756 H 0.0 **** 0.52
4028 M 40.58114233162838 37.31187123938968 9.286416645112793 M 0.0 **** -1.04
4029 O 43.9139653878527 3.196975584034457 11.359738151304619 O 0.0 **** 0.0
4030 H 44.185079130508484 4.109534693116446 11.4595482470897 H 0.0 **** 0.52
4031 H 43.247502109441996 3.218356830539471 10.673007866197054 H 0.0 **** 0.52
4032 M 43.86335654118713 3.3165317472810445 11.28460513768919 M 0.0 **** -1.04
4033 O 43.27889919413524 2.7458762878972323 30.927073685251717 O 0.0 **** 0.0
4034 H 43.815400808142535 2.0344425739732515 30.577420596842725 H 0.0 **** 0.52
4035 H 43.53264389549832 2.807525732460107 31.847965819428296 H 0.0 **** 0.52
4036 M 43.380060955054574 2.66269572907148 31.000199493131934 M 0.0 **** -1.04
4037 O 31.98532340136559 2.636992967738726 35.6226023647421 O 0.0 **** 0.0
4038 H 31.291957461313245 3.202532116311032 35.28254547721215 H 0.0 **** 0.52
4039 H 32.709727489573396 3.233143069531865 35.81253175204428 H 0.0 **** 0.52
4040 M 31.989296362588306 2.78570389679794 35.603383857841926 M 0.0 **** -1.04
4041 O 37.227990951839914 13.719565909338108 3.701306280250165 O 0.0 **** 0.0
4042 H 36.42213829796854 13.89424022465051 3.215178860863645 H 0.0 **** 0.52
4043 H 36.9332893123588 13.51392252068121 4.5884876807729995 H 0.0 **** 0.52
4044 M 37.08710618838396 13.715601170309597 3.7526457642404694 M 0.0 **** -1.04
4045 O 6.490300373285082 47.7893479405603 45.272020096520855 O 0.0 **** 0.0
4046 H 6.356875379758412 47.90625869800889 44.33140338383479 H 0.0 **** 0.52
4047 H 6.039424015473999 48.53264421127338 45.67258219669783 H 0.0 **** 0.52
4048 M 6.415502726955948 47.899465354321336 45.20288611271256 M 0.0 **** -1.04
4049 O 17.79138304989828 37.86327539220603 42.38606884863072 O 0.0 **** 0.0
4050 H 17.886761394432725 38.03217035917081 43.323408467557506 H 0.0 **** 0.52
4051 H 18.681606727435756 37.68575461965136 42.082397242863536 H 0.0 **** 0.52
4052 M 17.91755311911521 37.862171513819526 42.46718651227004 M 0.0 **** -1.04
4053 O 39.03778831952816 2.889642935631379 30.981437984905003 O 0.0 **** 0.0
4054 H 38.20321703431313 3.238031080917615 31.295038660454836 H 0.0 **** 0.52
4055 H 39.506140116985584 2.636238456726936 31.776837162920263 H 0.0 **** 0.52
4056 M 38.99090795189817 2.901802909867868 31.123403563463555 M 0.0 **** -1.04
4057 O 13.19006449417178 32.58253348821173 18.174183231398132 O 0.0 **** 0.0
4058 H 13.717137908793767 32.93197768755793 17.455635601127483 H 0.0 **** 0.52
4059 H 12.300163703897608 32.54627941864565 17.823483633980537 H 0.0 **** 0.52
4060 M 13.143618079039038 32.62262564364742 18.037306157208086 M 0.0 **** -1.04
4061 O 30.148658105359058 44.41993614825124 35.48379806637599 O 0.0 **** 0.0
4062 H 30.372804606228087 44.21904260496804 36.3924393032524 H 0.0 **** 0.52
4063 H 29.58446755968346 43.69668631155514 35.21025451275548 H 0.0 **** 0.52
4064 M 30.1051285988526 44.30163410556637 35.565098906875285 M 0.0 **** -1.04
4065 O 28.072136758922692 49.7140903860996 47.496252912200355 O 0.0 **** 0.0
4066 H 28.804858210557494 50.01830058334645 46.9607113229645 H 0.0 **** 0.52
4067 H 28.460000029100367 49.07261305506847 48.09148114714078 H 0.0 **** 0.52
4068 M 28.21558541715072 49.67091625384406 47.503892623619066 M 0.0 **** -1.04
4069 O 37.369461759285684 19.566551335337106 23.259938863355917 O 0.0 **** 0.0
4070 H 36.568902251679745 19.810977090309805 22.795622956200027 H 0.0 **** 0.52
4071 H 37.8141656240688 20.397839660230737 23.425548116200517 H 0.0 **** 0.52
4072 M 37.32390757800058 19.704256422886207 23.22170042886202 M 0.0 **** -1.04
4073 O 45.466361732371816 11.956840722430556 31.357678469600387 O 0.0 **** 0.0
4074 H 44.582433835553616 11.634019879557346 31.532855447923595 H 0.0 **** 0.52
4075 H 45.73785652687605 12.369861384801242 32.17739292283045 H 0.0 **** 0.52
4076 M 45.3879632458345 11.968387254128501 31.485036336449724 M 0.0 **** -1.04
4077 O 43.3686179081554 35.704713548554246 9.794274568287873 O 0.0 **** 0.0
4078 H 42.92820091484749 35.98034134220579 8.990352247846104 H 0.0 **** 0.52
4079 H 44.30141765422342 35.748744044437736 9.584096692088291 H 0.0 **** 0.52
4080 M 43.431649480245675 35.74563387213543 9.66445747160627 M 0.0 **** -1.04
4081 O 6.7280020165464425 22.14218227984764 49.34812738255003 O 0.0 **** 0.0
4082 H 6.962350188098946 21.23440377929297 49.15512968114917 H 0.0 **** 0.52
4083 H 5.774429504911651 22.13151477200409 49.43068140849808 H 0.0 **** 0.52
4084 M 6.635931819621747 22.024609043193283 49.33398878761105 M 0.0 **** -1.04
4085 O 36.71933398493671 49.18579018954678 40.50873809162921 O 0.0 **** 0.0
4086 H 36.35603308461874 49.60040008290418 41.29125888254295 H 0.0 **** 0.52
4087 H 37.07307916092473 48.35286848238489 40.820724564173574 H 0.0 **** 0.52
4088 M 36.7181111083107 49.13224121598092 40.64884902764715 M 0.0 **** -1.04
4089 O 10.904609871019012 13.778897042358713 15.423646994259009 O 0.0 **** 0.0
4090 H 11.101348067998266 13.8852539919959 16.354351203903818 H 0.0 **** 0.52
4091 H 11.058118995592451 14.644703568036006 15.045434979353786 H 0.0 **** 0.52
4092 M 10.949445751005598 13.90334698972961 15.494373116478592 M 0.0 **** -1.04
4093 O 46.20844309056733 38.119413049209406 8.984087301385486 O 0.0 **** 0.0
4094 H 46.291836663455314 37.18148779734032 9.156044039661943 H 0.0 **** 0.52
4095 H 45.28838787981897 38.315046059775575 9.161443439855496 H 0.0 **** 0.52
4096 M 46.10134041417617 38.02439081404497 9.028803384311168 M 0.0 **** -1.04
4097 O 17.733804231076956 29.142671122387565 47.57598301797974 O 0.0 **** 0.0
4098 H 18.525726525099444 29.668262200870863 47.68930460126524 H 0.0 **** 0.52
4099 H 17.084435051801766 29.757594165076302 47.23478211912203 H 0.0 **** 0.52
4100 M 17.752052108935704 29.288671524920595 47.54681116768092 M 0.0 **** -1.04
4101 O 34.74239692637386 35.72771729020494 10.272912779265734 O 0.0 **** 0.0
4102 H 35.25031728198523 36.49276679345535 10.002831993069877 H 0.0 **** 0.52
4103 H 34.11398658788795 36.06923632278774 10.909069252854549 H 0.0 **** 0.52
4104 M 34.72697185838477 35.86937210281274 10.319774964379002 M 0.0 **** -1.04
4105 O 4.961704245789726 6.355345227025692 9.929568858900334 O 0.0 **** 0.0
4106 H 4.3766243455776745 5.612627714743724 9.7803009334301 H 0.0 **** 0.52
4107 H 5.841324989329777 5.992951104515662 9.823893152468408 H 0.0 **** 0.52
4108 M 4.999409279557511 6.21387707990462 9.89693390427049 M 0.0 **** -1.04
4109 O 15.0188648712694 17.519511271154357 8.190063743325767 O 0.0 **** 0.0
4110 H 15.744791835515514 17.123600265327568 7.707868254138069 H 0.0 **** 0.52
4111 H 14.767727589043162 16.856282102459502 8.83293690446305 H 0.0 **** 0.52
4112 M 15.079643938102635 17.38392801981719 8.21063241021812 M 0.0 **** -1.04
4113 O 9.457758651155487 15.414981764183779 33.704733359508786 O 0.0 **** 0.0
4114 H 8.805191403792435 14.910683633685924 34.19060198266235 H 0.0 **** 0.52
4115 H 8.996932742796979 16.210731655370004 33.43893456031956 H 0.0 **** 0.52
4116 M 9.315230477843315 15.452291425221839 33.73290531056858 M 0.0 **** -1.04
4117 O 13.432674737547345 36.15362714819914 43.68220267950324 O 0.0 **** 0.0
4118 H 12.928942713581208 35.776813047671865 42.96075017615469 H 0.0 **** 0.52
4119 H 14.290447397176088 36.343824800849596 43.302360543117906 H 0.0 **** 0.52
4120 M 13.47799593642111 36.12973801224011 43.54122300965053 M 0.0 **** -1.04
4121 O 44.331532399153296 6.479576858073998 46.290182326969045 O 0.0 **** 0.0
4122 H 43.746024578761116 6.609307100829706 47.03622480238417 H 0.0 **** 0.52
4123 H 43.74660742153613 6.405024057093227 45.53617172095221 H 0.0 **** 0.52
4124 M 44.18170237813547 6.486640463984643 46.28916244103344 M 0.0 **** -1.04
4125 O 46.5953606069438 15.14498197498617 11.529563858851485 O 0.0 **** 0.0
4126 H 46.595426871435414 14.259054108516793 11.892000349278634 H 0.0 **** 0.52
4127 H 45.99083147707136 15.632977853144297 12.088701119007222 H 0.0 **** 0.52
4128 M 46.51798144085503 15.094041607536733 11.647536119177904 M 0.0 **** -1.04
4129 O 9.807890990457318 22.159536028100774 8.802871355339523 O 0.0 **** 0.0
4130 H 10.054117911753856 22.71726644628771 9.540799677304193 H 0.0 **** 0.52
4131 H 10.600725659180876 22.103331661474822 8.269502047152482 H 0.0 **** 0.52
4132 M 9.940903867286883 22.223737610648733 8.829057898026145 M 0.0 **** -1.04
4133 O 9.573844936405356 7.051605047938374 41.59434522501259 O 0.0 **** 0.0
4134 H 9.897045139580554 6.757810078892412 42.446081330230825 H 0.0 **** 0.52
4135 H 10.174003840381873 7.752021390555626 41.338501543843996 H 0.0 **** 0.52
4136 M 9.692046620600955 7.103658181220055 41.670627096711534 M 0.0 **** -1.04
4137 O 45.087714902239966 1.3053550958472044 3.765346184585219 O 0.0 **** 0.0
4138 H 45.327248100189706 0.6005814507684448 3.163560764781538 H 0.0 **** 0.52
4139 H 45.452414597449604 2.095544134113638 3.3668173893200946 H 0.0 **** 0.52
4140 M 45.16506398822487 1.316289531800308 3.637293686328898 M 0.0 **** -1.04
4141 O 17.212508775690793 22.22555745558757 45.23960278710018 O 0.0 **** 0.0
4142 H 17.3011457643073 21.7760439782637 44.399179664289356 H 0.0 **** 0.52
4143 H 18.02552120403159 22.02775256735284 45.704482926640196 H 0.0 **** 0.52
4144 M 17.327931398883162 22.14269205230604 45.191528410886036 M 0.0 **** -1.04
4145 O 36.68263200399191 36.43109273109697 21.988316975505064 O 0.0 **** 0.0
4146 H 37.639254103810686 36.39798454254597 21.98574653618566 H 0.0 **** 0.52
4147 H 36.44473123012536 36.423657252693175 22.91544993105174 H 0.0 **** 0.52
4148 M 36.774637500809696 36.42590301294902 22.106672022971832 M 0.0 **** -1.04
4149 O 6.498673843191591 39.42701517039617 19.385886018849934 O 0.0 **** 0.0
4150 H 5.612943634521856 39.78606631362387 19.33302989983381 H 0.0 **** 0.52
4151 H 6.4091219524061565 38.52224608139915 19.086550083316 H 0.0 **** 0.52
4152 M 6.373825636760817 39.357156751303044 19.340801223166462 M 0.0 **** -1.04
4153 O 32.36519118094617 1.403360096597753 33.31279406021896 O 0.0 **** 0.0
4154 H 32.006938519609065 2.1467500888727264 32.82776329000271 H 0.0 **** 0.52
4155 H 32.52234129908331 1.7445186385447573 34.19321625914023 H 0.0 **** 0.52
4156 M 32.33944734046446 1.5421960159614918 33.36340908137532 M 0.0 **** -1.04
4157 O 11.87259150173346 20.112863391884094 10.139160347333146 O 0.0 **** 0.0
4158 H 11.537884434283242 20.529490008048516 9.345043319428072 H 0.0 **** 0.52
4159 H 12.815653926761602 20.039635660140675 9.992531162348456 H 0.0 **** 0.52
4160 M 11.95046945536423 20.156823069079042 10.018732920755099 M 0.0 **** -1.04
4161 O 34.03114309134841 15.228209646282544 16.175185659603727 O 0.0 **** 0.0
4162 H 34.02602224820399 14.627033581598496 15.430343274812683 H 0.0 **** 0.52
4163 H 33.93276294994186 16.09615098496905 15.783741131449824 H 0.0 **** 0.52
4164 M 34.01789392468977 15.262358677334442 16.029726119407623 M 0.0 **** -1.04
4165 O 42.18427532441903 14.796989979968563 32.08546084085592 O 0.0 **** 0.0
4166 H 41.645874071980344 15.393836378275424 32.605199063847124 H 0.0 **** 0.52
4167 H 41.736085350548144 13.953504812686601 32.14781426988278 H 0.0 **** 0.52
4168 M 42.057979530787804 14.765417341964236 32.1599758147774 M 0.0 **** -1.04
4169 O 16.542769672651005 49.108059037735316 9.921552131554025 O 0.0 **** 0.0
4170 H 15.595069320384164 49.233807824593065 9.873799821924411 H 0.0 **** 0.52
4171 H 16.68137648451919 48.63812687585527 10.743854295566946 H 0.0 **** 0.52
4172 M 16.4391951785398 49.06399944995616 10.0207042818501 M 0.0 **** -1.04
4173 O 6.5895651708498635 44.29149798974579 23.291766945991192 O 0.0 **** 0.0
4174 H 6.987935594935911 45.14164575106659 23.105275225467384 H 0.0 **** 0.52
4175 H 6.648326578471602 43.81242673895076 22.465167754872414 H 0.0 **** 0.52
4176 M 6.648083637698688 44.339000126447644 23.162078526984615 M 0.0 **** -1.04
4177 O 10.73733435274184 1.0917574895348494 28.999425574824613 O 0.0 **** 0.0
4178 H 10.794576869924793 1.0824988923501735 28.04398563808809 H 0.0 **** 0.52
4179 H 10.239516911927348 1.883732859388111 29.202357054403436 H 0.0 **** 0.52
4180 M 10.680935558032097 1.1919552554285175 28.903094773664165 M 0.0 **** -1.04
4181 O 19.556618847857507 36.97315512069797 29.044445716060526 O 0.0 **** 0.0
4182 H 18.96694286685901 37.4373990068362 29.63857345769991 H 0.0 **** 0.52
4183 H 19.040464090417295 36.84023838493077 28.249369933980844 H 0.0 **** 0.52
4184 M 19.415059003647897 37.01556846301565 29.018722042143505 M 0.0 **** -1.04
4185 O 15.132457537101896 26.584315654512796 11.611132908133257 O 0.0 **** 0.0
4186 H 15.5312713422875 27.19354649884447 10.989832547951579 H 0.0 **** 0.52
4187 H 15.270365219135194 25.720545414427963 11.222402917217252 H 0.0 **** 0.52
4188 M 15.201165115543525 26.55173093109309 11.481836486043008 M 0.0 **** -1.04
4189 O 1.5639121635736473 2.383031652799204 22.530847569364873 O 0.0 **** 0.0
4190 H 1.5803683697495785 1.540184400503236 22.077453293377516 H 0.0 **** 0.52
4191 H 0.8090579368900137 2.3257327728223345 23.11662965845852 H 0.0 **** 0.52
4192 M 1.4693879506281675 2.2678017645376087 22.54779504009795 M 0.0 **** -1.04
4193 O 40.78442215543139 20.092730484933128 11.957125331352572 O 0.0 **** 0.0
4194 H 40.64247125805707 20.754634983052863 12.633853719893196 H 0.0 **** 0.52
4195 H 39.95179299762948 19.623814580160015 11.90166344979243 H 0.0 **** 0.52
4196 M 40.65966366772026 20.117436473975406 12.036655160966717 M 0.0 **** -1.04
4197 O 39.275791877928924 23.57244717404798 33.93126369487413 O 0.0 **** 0.0
4198 H 39.70508243021455 22.991270364288724 33.30343284691488 H 0.0 **** 0.52
4199 H 38.86822513150318 24.249765475227292 33.391486872398964 H 0.0 **** 0.52
4200 M 39.27857195006596 23.58475455456709 33.78179495220642 M 0.0 **** -1.04
4201 O 45.508578017714356 4.6080588223153836 29.111665678605934 O 0.0 **** 0.0
4202 H 45.603287261571815 3.662486762604532 28.996981151871854 H 0.0 **** 0.52
4203 H 45.61126783136534 4.968128440233493 28.230738604122617 H 0.0 **** 0.52
4204 M 45.533847452195516 4.533106720493242 28.9842152605311 M 0.0 **** -1.04
4205 O 4.792075422108354 24.11460081381691 7.7461386493272775 O 0.0 **** 0.0
4206 H 4.396081536183949 23.387740043906447 8.22685796902664 H 0.0 **** 0.52
4207 H 5.624141161515027 24.272365971709082 8.192238078574244 H 0.0 **** 0.52
4208 M 4.847897925948949 24.041749029739766 7.864783149021678 M 0.0 **** -1.04
4209 O 22.505950404764057 13.047134748595653 6.501706343191335 O 0.0 **** 0.0
4210 H 22.24964914929552 12.618105357506195 7.318083520020538 H 0.0 **** 0.52
4211 H 21.691611047001462 13.122628698781227 6.004331680162413 H 0.0 **** 0.52
4212 M 22.368895161466778 13.001877365437643 6.542542610471934 M 0.0 **** -1.04
4213 O 44.50588080895881 10.602130929468311 44.24531280214746 O 0.0 **** 0.0
4214 H 44.60929686796324 9.854226466620792 43.65694828805584 H 0.0 **** 0.52
4215 H 45.01538325576007 10.369168994344877 45.02143385320302 H 0.0 **** 0.52
4216 M 44.58434200430199 10.476567388183481 44.26934804821071 M 0.0 **** -1.04
4217 O 7.635465441582653 32.09853584271069 31.815699427844386 O 0.0 **** 0.0
4218 H 8.215709993821434 32.85889250717774 31.853145589115528 H 0.0 **** 0.52
4219 H 8.048431259126644 31.453025768849272 32.38928867727627 H 0.0 **** 0.52
4220 M 7.762608737931423 32.11323781253949 31.893919694870917 M 0.0 **** -1.04
4221 O 5.171177430716745 40.79462226306877 0.008476243559719876 O 0.0 **** 0.0
4222 H 5.483518759826471 40.51307824032702 -0.8514099642555095 H 0.0 **** 0.52
4223 H 5.425238771766872 40.08615323101271 0.5998761047389678 H 0.0 **** 0.52
4224 M 5.243684418977783 40.66788836591752 -0.025892783923751495 M 0.0 **** -1.04
4225 O 45.6812861474508 10.217175763999249 46.64497011460681 O 0.0 **** 0.0
4226 H 45.2699982215416 10.598209506812502 47.420782078683324 H 0.0 **** 0.52
4227 H 46.48144340269533 10.727962525004692 46.52219513480085 H 0.0 **** 0.52
4228 M 45.73106685107012 10.331339480646468 46.72856686967818 M 0.0 **** -1.04
4229 O 47.707206312665754 30.381539759171247 39.52826660997453 O 0.0 **** 0.0
4230 H 48.03163335019991 29.50657340945689 39.74136243676061 H 0.0 **** 0.52
4231 H 48.48980326621465 30.932652814922392 39.521654811813384 H 0.0 **** 0.52
4232 M 47.84891940338524 30.340082639408415 39.55469933578382 M 0.0 **** -1.04
4233 O 22.12621765002919 10.207537445358286 14.050236964142398 O 0.0 **** 0.0
4234 H 21.461356699413557 10.07740358965758 14.726441953705399 H 0.0 **** 0.52
4235 H 22.658755052214786 9.412757040552869 14.08117056218244 H 0.0 **** 0.52
4236 M 22.109279024621372 10.089136563725184 14.140758712953371 M 0.0 **** -1.04
4237 O 46.982942716542645 9.560556219802223 14.419321438137558 O 0.0 **** 0.0
4238 H 47.90134295258448 9.62960305042752 14.158550679146288 H 0.0 **** 0.52
4239 H 47.008885270231296 9.146639524118314 15.28200787713682 H 0.0 **** 0.52
4240 M 47.103830162782465 9.516407957993117 14.496374001455393 M 0.0 **** -1.04
4241 O 15.397015113637835 24.452186417961375 44.83668822505353 O 0.0 **** 0.0
4242 H 16.076361515128667 23.78187466941011 44.91016790675896 H 0.0 **** 0.52
4243 H 15.191153311147056 24.483838260249037 43.90242510889086 H 0.0 **** 0.52
4244 M 15.457627084761231 24.37042996700791 44.7264971844285 M 0.0 **** -1.04
4245 O 18.880319936554955 4.140037779380066 36.60671264396635 O 0.0 **** 0.0
4246 H 18.9922306484776 3.3420919021507913 36.090005712812314 H 0.0 **** 0.52
4247 H 19.319208149005632 3.952234714258914 37.4363727503399 H 0.0 **** 0.52
4248 M 18.950829489589154 4.013849501273249 36.64677448395594 M 0.0 **** -1.04
4249 O 31.586178827171196 43.38924286264155 26.66418935027484 O 0.0 **** 0.0
4250 H 31.99537605969664 44.092846713257735 26.16047486602764 H 0.0 **** 0.52
4251 H 31.765642327654092 43.6122832674043 27.57757545734212 H 0.0 **** 0.52
4252 M 31.66153495651153 43.50786479939826 26.716632013326247 M 0.0 **** -1.04
4253 O 39.67286841005673 19.852238667459016 9.185517292606022 O 0.0 **** 0.0
4254 H 40.58935686618387 19.939057485876823 9.447701750887575 H 0.0 **** 0.52
4255 H 39.27671170399865 20.692611259230368 9.415869440670384 H 0.0 **** 0.52
4256 M 39.73947760963589 19.970930767994457 9.24856807718411 M 0.0 **** -1.04
4257 O 5.137198306466793 17.744580192009767 25.385608557694013 O 0.0 **** 0.0
4258 H 5.651690868701316 17.612455241369954 26.181892756067754 H 0.0 **** 0.52
4259 H 5.741127497993411 17.53724036341938 24.672510603492043 H 0.0 **** 0.52
4260 M 5.280370334904298 17.70112461624442 25.396257442187846 M 0.0 **** -1.04
4261 O 15.472688989289438 8.549201156352579 29.608901129788507 O 0.0 **** 0.0
4262 H 15.452248429601667 7.755098978166924 29.074847825750226 H 0.0 **** 0.52
4263 H 16.061292916722294 9.139618771937046 29.138602464547006 H 0.0 **** 0.52
4264 M 15.545420516202213 8.52312742284364 29.480331047137696 M 0.0 **** -1.04
4265 O 24.92916281426389 9.512218003381506 3.3902575580503624 O 0.0 **** 0.0
4266 H 25.212048260901167 10.301229859837349 3.852497872071681 H 0.0 **** 0.52
4267 H 24.155305957660108 9.217313986509225 3.8702633233766526 H 0.0 **** 0.52
4268 M 24.866312353435333 9.575470032516932 3.510877605330565 M 0.0 **** -1.04
4269 O 27.17736828949006 33.66779854094317 7.478311038090756 O 0.0 **** 0.0
4270 H 27.3413643805096 34.5897790191827 7.67651888264538 H 0.0 **** 0.52
4271 H 27.903252059895777 33.411859726277456 6.909262025833851 H 0.0 **** 0.52
4272 M 27.291284043431975 33.75306008934992 7.430838693266489 M 0.0 **** -1.04
4273 O 6.799551918597746 35.063973964164 2.595354458414814 O 0.0 **** 0.0
4274 H 6.422728498819527 35.860363038153174 2.9695159601834487 H 0.0 **** 0.52
4275 H 6.726288503969433 34.41297122384324 3.293249291695807 H 0.0 **** 0.52
4276 M 6.74193568558065 35.082584816601084 2.7325910857358315 M 0.0 **** -1.04
4277 O 34.62307273946469 17.16383603261862 14.069628763120365 O 0.0 **** 0.0
4278 H 33.90712889029793 17.45900176188603 13.507019542904454 H 0.0 **** 0.52
4279 H 35.09577582541285 17.964643966466568 14.296537570868942 H 0.0 **** 0.52
4280 M 34.59193540297676 17.304133879041757 14.026655086253536 M 0.0 **** -1.04
4281 O 32.2019193195388 38.500942431880674 4.57430614464765 O 0.0 **** 0.0
4282 H 32.90138222795418 37.90816251374055 4.299367486402051 H 0.0 **** 0.52
4283 H 31.397800675254274 37.99623900495628 4.452259952827555 H 0.0 **** 0.52
4284 M 32.1885215853786 38.360451272618235 4.523487332575083 M 0.0 **** -1.04
4285 O 48.82191394689586 0.5900345128726343 2.5918548298894066 O 0.0 **** 0.0
4286 H 48.613820276861155 0.8081098269152847 3.5003532683057603 H 0.0 **** 0.52
4287 H 48.7619044240425 1.4235988149097807 2.125166789439977 H 0.0 **** 0.52
4288 M 48.78759400731599 0.7246572248628524 2.6484127142347162 M 0.0 **** -1.04
4289 O 46.86063508822363 34.45134130152272 11.606296624787063 O 0.0 **** 0.0
4290 H 46.82575410785152 33.55851101157452 11.949611575736256 H 0.0 **** 0.52
4291 H 47.44681766390082 34.91553060406973 12.203915371120651 H 0.0 **** 0.52
4292 M 46.93120888474913 34.396470678490466 11.726748157222332 M 0.0 **** -1.04
4293 O 37.85882926207056 4.566152452463914 16.491293335592243 O 0.0 **** 0.0
4294 H 37.15167482806127 4.074247200520532 16.908654615828954 H 0.0 **** 0.52
4295 H 38.63215972201041 4.012343800394443 16.598454422655248 H 0.0 **** 0.52
4296 M 37.867300508303636 4.432288764548913 16.55843851789939 M 0.0 **** -1.04
4297 O 29.937641384241353 35.27636987750339 21.770039926946055 O 0.0 **** 0.0
4298 H 30.588050407801006 35.219895189240916 22.47004532307811 H 0.0 **** 0.52
4299 H 29.1009521324081 35.1155966526908 22.20631227839208 H 0.0 **** 0.52
4300 M 29.91379411273249 35.2485591908668 21.915497615939756 M 0.0 **** -1.04
4301 O 32.30737554295181 13.739076946268026 32.436525137748774 O 0.0 **** 0.0
4302 H 32.12524553519123 13.55056067380186 33.35713346791401 H 0.0 **** 0.52
4303 H 33.20010651213369 14.084410109484292 32.434326992015116 H 0.0 **** 0.52
4304 M 32.398341641161906 13.759151146072664 32.55409294519893 M 0.0 **** -1.04
4305 O 17.334958455257194 11.241494525112813 38.06064056087032 O 0.0 **** 0.0
4306 H 16.68206972560324 11.406070281598758 37.38028740279696 H 0.0 **** 0.52
4307 H 18.175827208873514 11.381253762078785 37.62516912730217 H 0.0 **** 0.52
4308 M 17.359022247264363 11.280453295264891 37.91780119519173 M 0.0 **** -1.04
4309 O 26.853396036941422 11.678768829844259 28.27610803174141 O 0.0 **** 0.0
4310 H 26.489075252834635 11.261501654405912 29.056739870725718 H 0.0 **** 0.52
4311 H 26.388852941679318 12.513151967843449 28.21103342794361 H 0.0 **** 0.52
4312 M 26.747290430623757 11.732164981909339 28.36770847469117 M 0.0 **** -1.04
4313 O 20.12342751746354 27.565237821989555 20.04331292676227 O 0.0 **** 0.0
4314 H 19.17827293847607 27.42202639668703 19.99430222769312 H 0.0 **** 0.52
4315 H 20.427520767985413 27.471297640991907 19.14057791458063 H 0.0 **** 0.52
4316 M 20.041363567757912 27.534879721314596 19.92147733593962 M 0.0 **** -1.04
4317 O 42.34409407146733 9.805114684109938 48.62139784825443 O 0.0 **** 0.0
4318 H 41.582068621162556 10.132655194732848 49.09916661378852 H 0.0 **** 0.52
4319 H 43.03514035986546 10.440944420849554 48.80687820841982 H 0.0 **** 0.52
4320 M 42.335007712237434 9.928438004777732 48.706301964953326 M 0.0 **** -1.04
4321 O 32.88382516600618 32.42520725228534 9.950482659628035 O 0.0 **** 0.0
4322 H 32.608986196072934 32.93014245955595 9.185150903661556 H 0.0 **** 0.52
4323 H 32.22542953567669 31.735187323491882 10.031827288860816 H 0.0 **** 0.52
4324 M 32.76436022466328 32.401513645530244 9.86292421124712 M 0.0 **** -1.04
4325 O 22.651904468045608 12.511082182382884 28.20920032467903 O 0.0 **** 0.0
4326 H 22.99135300886652 11.84919116185542 28.811614835347882 H 0.0 **** 0.52
4327 H 22.987580814786995 12.24984852065164 27.351700147113135 H 0.0 **** 0.52
4328 M 22.738328293845726 12.392910357786446 28.176545563806954 M 0.0 **** -1.04
4329 O 15.535992442331548 43.59151080722975 19.62357844859571 O 0.0 **** 0.0
4330 H 16.301524026478987 44.15689395410306 19.520947274996374 H 0.0 **** 0.52
4331 H 15.725401053479345 43.070378702722564 20.403818501299373 H 0.0 **** 0.52
4332 M 15.658236515043953 43.59717569980584 19.710321246220555 M 0.0 **** -1.04
4333 O 11.125734345562462 1.0021251916094656 42.16939155735761 O 0.0 **** 0.0
4334 H 10.61468678226145 0.28378730369432503 41.79649825817494 H 0.0 **** 0.52
4335 H 10.524059287696415 1.7465532781834838 42.17596683668664 H 0.0 **** 0.52
4336 M 10.983292067759004 1.0054645991313507 42.12249808449031 M 0.0 **** -1.04
4337 O 48.116471446310115 35.04290525956552 20.274863317934766 O 0.0 **** 0.0
4338 H 49.05311041504515 35.22431403547833 20.352501967059453 H 0.0 **** 0.52
4339 H 47.939768377357396 35.09103475166313 19.33534849951718 H 0.0 **** 0.52
4340 M 48.21375326754842 35.07228890105582 20.164533007986265 M 0.0 **** -1.04
4341 O 38.64303886763409 29.580411343395696 21.026752065172047 O 0.0 **** 0.0
4342 H 38.837551553739445 28.747829134075346 21.457101878384307 H 0.0 **** 0.52
4343 H 38.257035567477914 29.33198268263351 20.186803403083132 H 0.0 **** 0.52
4344 M 38.618525922650605 29.442027887737822 20.974318056404755 M 0.0 **** -1.04
4345 O 45.67076876472255 46.3818089538023 24.242339063847698 O 0.0 **** 0.0
4346 H 44.772635712738136 46.59542544315426 24.495230833205355 H 0.0 **** 0.52
4347 H 45.674358304892934 45.42892592179122 24.151620498214804 H 0.0 **** 0.52
4348 M 45.556255790185 46.287173770721694 24.263098884821833 M 0.0 **** -1.04
4349 O 30.053443769919184 34.76786555214183 5.540032621946942 O 0.0 **** 0.0
4350 H 30.754005372761902 34.935535329983885 4.909692712962581 H 0.0 **** 0.52
4351 H 29.600095362221005 33.99826828116675 5.195904949621955 H 0.0 **** 0.52
4352 M 30.08509008790134 34.69081150928454 5.4152892650114595 M 0.0 **** -1.04
4353 O 42.6636276312494 6.75976095790088 24.271712473623978 O 0.0 **** 0.0
4354 H 43.103477478316705 7.465769306260834 24.745327686293003 H 0.0 **** 0.52
4355 H 43.1313441487284 5.966926827812863 24.53417022784644 H 0.0 **** 0.52
4356 M 42.77980731745794 6.748645993582648 24.365939308494433 M 0.0 **** -1.04
4357 O 25.79874800212018 14.85462031818299 39.947479421308394 O 0.0 **** 0.0
4358 H 26.278721543487855 14.840151032286409 39.119442797865155 H 0.0 **** 0.52
4359 H 26.059992196473136 15.67692281256446 40.36196658568089 H 0.0 **** 0.52
4360 M 25.89363289261781 14.958032584870304 39.89454013601064 M 0.0 **** -1.04
4361 O 1.9753776241155279 24.256734290183264 34.57475864176808 O 0.0 **** 0.0
4362 H 1.734901946929487 23.350331482190544 34.38283423860262 H 0.0 **** 0.52
4363 H 1.5298276841064167 24.770942453719435 33.90148162167216 H 0.0 **** 0.52
4364 M 1.8875578737635244 24.206528079782263 34.46400165140044 M 0.0 **** -1.04
4365 O 15.044091750464856 43.954256631367386 34.850943634492964 O 0.0 **** 0.0
4366 H 15.345498342056105 44.86154856635007 34.89787164003252 H 0.0 **** 0.52
4367 H 15.190078227262543 43.69969357025596 33.93983717994498 H 0.0 **** 0.52
4368 M 15.101363088815692 44.037813965913045 34.740317782138575 M 0.0 **** -1.04
4369 O 19.422051455221506 21.429386431555727 2.728810067456301 O 0.0 **** 0.0
4370 H 20.218032234903205 21.003397897227018 2.4107271837739432 H 0.0 **** 0.52
4371 H 18.9445459084436 21.669366307152558 1.9346898049690964 H 0.0 **** 0.52
4372 M 19.462820298973725 21.405575070506075 2.58643387768403 M 0.0 **** -1.04
4373 O 8.748774775988736 0.04167596173731822 14.705484819231001 O 0.0 **** 0.0
4374 H 8.11255689452473 -0.018838672383310495 13.992888229323103 H 0.0 **** 0.52
4375 H 9.294394952253079 -0.7385946838568245 14.60697427084642 H 0.0 **** 0.52
4376 M 8.737177475173382 -0.06595534715613383 14.601652565809086 M 0.0 **** -1.04
4377 O 15.049721016972825 27.236354776209804 45.376982928974726 O 0.0 **** 0.0
4378 H 15.087264116879211 26.298862286703198 45.187437204747766 H 0.0 **** 0.52
4379 H 15.894524498098846 27.57512139015632 45.080715692485164 H 0.0 **** 0.52
4380 M 15.162672308683312 27.15971021840161 45.314792655255 M 0.0 **** -1.04
4381 O 41.64883762690596 48.90879482772214 21.721896043405053 O 0.0 **** 0.0
4382 H 41.94308920150975 48.19506292876916 21.156006338170016 H 0.0 **** 0.52
4383 H 41.81192344324006 49.702234282003204 21.21190979370057 H 0.0 **** 0.52
4384 M 41.70738268454613 48.91899860005367 21.584170530078225 M 0.0 **** -1.04
4385 O 1.6892650101951574 26.16761897542979 14.44734804979589 O 0.0 **** 0.0
4386 H 1.3715861516534176 26.97131441773899 14.035788462047357 H 0.0 **** 0.52
4387 H 0.8990723336343223 25.652063850855008 14.608676647893068 H 0.0 **** 0.52
4388 M 1.5474438099790149 26.204504622022547 14.415315508097171 M 0.0 **** -1.04
4389 O 29.365767697380512 42.62789482827999 1.1861736982966136 O 0.0 **** 0.0
4390 H 29.991572399451897 42.36181194338588 0.5125290424628446 H 0.0 **** 0.52
4391 H 29.901876604163185 42.783590846465565 1.9637180506335525 H 0.0 **** 0.52
4392 M 29.514507581006892 42.61376449888706 1.1994744253086296 M 0.0 **** -1.04
4393 O 45.52209061796816 26.071326897559107 10.01803236002499 O 0.0 **** 0.0
4394 H 44.82170898963028 26.040572219219477 9.366304945191716 H 0.0 **** 0.52
4395 H 45.220536980251445 25.496730267576588 10.721687924239328 H 0.0 **** 0.52
4396 M 45.393830523434595 25.993834055141352 10.024679636103524 M 0.0 **** -1.04
4397 O 20.45812230923408 43.862041694532046 26.548332996363683 O 0.0 **** 0.0
4398 H 21.033587995674637 44.35065176567252 25.959837342216016 H 0.0 **** 0.52
4399 H 20.14195057235357 44.5155959523861 27.172135914922006 H 0.0 **** 0.52
4400 M 20.491315186758943 44.008252609663245 26.552853237410147 M 0.0 **** -1.04
4401 O 8.941907628453977 23.015137604802817 17.806897019693892 O 0.0 **** 0.0
4402 H 8.985155816652995 22.09382769679137 17.550874369457077 H 0.0 **** 0.52
4403 H 9.541419715241153 23.08619957926625 18.549705578163227 H 0.0 **** 0.52
4404 M 9.024188970783287 22.90629496402171 17.869211617095132 M 0.0 **** -1.04
4405 O 26.83587663634601 13.791887325864423 33.22836351242956 O 0.0 **** 0.0
4406 H 26.91699460545191 12.929300998958055 33.635297334963035 H 0.0 **** 0.52
4407 H 26.807102331433892 14.402847475616738 33.96465722095614 H 0.0 **** 0.52
4408 M 26.842576898599102 13.759675349333392 33.374711086402236 M 0.0 **** -1.04
4409 O 49.67802652512294 29.00745393120136 15.366737217653068 O 0.0 **** 0.0
4410 H 49.09830678223737 28.478612263404617 15.914898571774762 H 0.0 **** 0.52
4411 H 50.55735743564915 28.688521647610955 15.56993055921927 H 0.0 **** 0.52
4412 M 49.71638017520447 28.898927997973328 15.462920264971213 M 0.0 **** -1.04
4413 O 11.137136344355483 30.867146450321727 47.09137274894655 O 0.0 **** 0.0
4414 H 11.368898835325979 31.088056873770302 47.99343314237472 H 0.0 **** 0.52
4415 H 11.958112055018828 30.948220108068785 46.60592951984432 H 0.0 **** 0.52
4416 M 11.271900576343432 30.905804364081305 47.14470443770149 M 0.0 **** -1.04
4417 O 33.384057121978984 29.29046353927471 29.530679283748327 O 0.0 **** 0.0
4418 H 32.82481637312595 29.542313517701608 28.795798699872392 H 0.0 **** 0.52
4419 H 33.03913249280123 28.444309156397207 29.81577368862662 H 0.0 **** 0.52
4420 M 33.268313277020304 29.21438482592824 29.473100929501868 M 0.0 **** -1.04
4421 O 0.756694186673571 48.99430623229443 3.323488078649137 O 0.0 **** 0.0
4422 H -0.03796427642731004 49.48323095604025 3.1097167799181173 H 0.0 **** 0.52
4423 H 0.5787002883191239 48.61060136106651 4.182160315929166 H 0.0 **** 0.52
4424 M 0.6321825549091102 49.00777547396715 3.4060440904842038 M 0.0 **** -1.04
4425 O 2.1942718301325836 39.47231074692361 22.460486489350007 O 0.0 **** 0.0
4426 H 1.7010175143899244 39.792023517282786 21.705031445496957 H 0.0 **** 0.52
4427 H 2.244116979843689 40.2245080998866 23.05035463963977 H 0.0 **** 0.52
4428 M 2.1375097926285043 39.60952900679217 22.43928958318389 M 0.0 **** -1.04
4429 O 1.8668746585166431 9.48678033969215 22.091562316798367 O 0.0 **** 0.0
4430 H 1.9766249130624374 8.769994982643329 22.716383634443545 H 0.0 **** 0.52
4431 H 1.1295806543948927 9.217033402640332 21.543965357937555 H 0.0 **** 0.52
4432 M 1.786541193581428 9.360491835713761 22.101448247477055 M 0.0 **** -1.04
4433 O 18.72244301756066 18.84086105714894 48.405155788718496 O 0.0 **** 0.0
4434 H 18.563573625984674 18.664970552258865 47.47776555489098 H 0.0 **** 0.52
4435 H 19.456251512748096 18.27093811648423 48.635244918752285 H 0.0 **** 0.52
4436 M 18.796042469357932 18.74538757668326 48.31589223689634 M 0.0 **** -1.04
4437 O 15.258421924793709 8.367369527454505 9.368471825574204 O 0.0 **** 0.0
4438 H 15.936942136676294 8.273765895715613 8.699833449335216 H 0.0 **** 0.52
4439 H 15.659733091388105 8.915895904563003 10.042485752153816 H 0.0 **** 0.52
4440 M 15.396653681088225 8.425605663460344 9.369159401644566 M 0.0 **** -1.04
4441 O 40.6195676585998 10.492503431213349 30.032435597096825 O 0.0 **** 0.0
4442 H 40.12607480326296 10.633712101987967 30.8403668948411 H 0.0 **** 0.52
4443 H 40.83978471089994 9.561071955366135 30.045411730477177 H 0.0 **** 0.52
4444 M 40.58458476447924 10.391345518670693 30.1375216318871 M 0.0 **** -1.04
4445 O 48.24544305808831 39.71488250318484 34.72923452919714 O 0.0 **** 0.0
4446 H 48.05239637008739 39.33892726685647 35.58808207535136 H 0.0 **** 0.52
4447 H 47.50531850150095 39.45395706921454 34.181182517244146 H 0.0 **** 0.52
4448 M 48.12598548926819 39.63335347756392 34.76902042747642 M 0.0 **** -1.04
4449 O 5.7181608138464055 15.959259499378112 9.892466215270826 O 0.0 **** 0.0
4450 H 6.622930983366369 16.1722177765468 10.121089365092464 H 0.0 **** 0.52
4451 H 5.633335990565844 15.02690528967142 10.091837659023012 H 0.0 **** 0.52
4452 M 5.823124269271028 15.867168415533216 9.947255126809587 M 0.0 **** -1.04
4453 O 42.31134626557862 29.092847111367565 37.93317475870055 O 0.0 **** 0.0
4454 H 43.12511113084126 29.536483167483848 38.17234539212745 H 0.0 **** 0.52
4455 H 41.904931395410024 28.86914730745732 38.77044145640059 H 0.0 **** 0.52
4456 M 42.36349220725541 29.12100100647805 38.07097161189304 M 0.0 **** -1.04
4457 O 36.37795091711979 19.355453104238137 27.87371945439189 O 0.0 **** 0.0
4458 H 36.17457409384128 19.66667636681211 26.991672973220318 H 0.0 **** 0.52
4459 H 36.90456327163566 20.05539847422739 28.259705552938286 H 0.0 **** 0.52
4460 M 36.41932958772264 19.484895056674993 27.810218004239317 M 0.0 **** -1.04
4461 O 9.622016591403671 38.1115101916035 23.474504353688843 O 0.0 **** 0.0
4462 H 9.324063391658012 37.668000515133244 24.26870325455012 H 0.0 **** 0.52
4463 H 8.816186533166078 38.35415064176857 23.018442335753633 H 0.0 **** 0.52
4464 M 9.48071767610657 38.08579647891277 23.51779038757408 M 0.0 **** -1.04
4465 O 10.87990412313569 8.786616508569274 45.73627516261766 O 0.0 **** 0.0
4466 H 11.01306760636755 8.177900212540234 46.46288414327663 H 0.0 **** 0.52
4467 H 11.741756262280727 8.864099685363549 45.3270860408854 H 0.0 **** 0.52
4468 M 11.007278582102376 8.71861235281434 45.776908067645515 M 0.0 **** -1.04
4469 O 17.551786067876737 28.120464825326252 45.00824175172946 O 0.0 **** 0.0
4470 H 18.230051699931558 27.46207926749929 44.85753368010728 H 0.0 **** 0.52
4471 H 17.680605633262193 28.394208114277305 45.916370965636865 H 0.0 **** 0.52
4472 M 17.655103558382454 28.071225596169867 45.10520076218586 M 0.0 **** -1.04
4473 O 19.335648203787045 37.11155422697855 22.39657689930295 O 0.0 **** 0.0
4474 H 18.459730108156094 36.995532686330215 22.764727196233444 H 0.0 **** 0.52
4475 H 19.522934876062347 38.0431541895251 22.51178835672569 H 0.0 **** 0.52
4476 M 19.247495248859558 37.215958945524584 22.458452910299776 M 0.0 **** -1.04
4477 O 20.579810069034394 32.641459427159425 22.08588325874678 O 0.0 **** 0.0
4478 H 20.851058483554834 31.746426056823697 21.88199963800517 H 0.0 **** 0.52
4479 H 20.292466033369195 33.00211018158706 21.247079148893633 H 0.0 **** 0.52
4480 M 20.577749649788846 32.57305182332612 21.9524054583967 M 0.0 **** -1.04
4481 O 4.312018624793725 40.67987255794359 4.959309733576791 O 0.0 **** 0.0
4482 H 5.160717149885839 40.25811289833648 4.824929357786731 H 0.0 **** 0.52
4483 H 4.465779735429218 41.600945014906216 4.749040936990432 H 0.0 **** 0.52
4484 M 4.440346465647535 40.74379094459854 4.915190431777856 M 0.0 **** -1.04
4485 O 24.835141140583914 4.933151078519522 39.518088114178866 O 0.0 **** 0.0
4486 H 25.62824732664614 5.423596491896852 39.734130629718685 H 0.0 **** 0.52
4487 H 24.31960255369352 4.943211390062885 40.32452909975841 H 0.0 **** 0.52
4488 M 24.87067374158747 4.997222034645873 39.648978369671674 M 0.0 **** -1.04
4489 O 1.5346217088380172 25.329202163020028 48.43374421195384 O 0.0 **** 0.0
4490 H 1.5637035179275571 25.920276124579345 47.68140515186651 H 0.0 **** 0.52
4491 H 1.3181378212048926 25.89475220964536 49.17503773470428 H 0.0 **** 0.52
4492 M 1.5106322756123802 25.477264527883108 48.43232989739374 M 0.0 **** -1.04
4493 O 29.125700090307877 33.0683326600394 14.7154243010865 O 0.0 **** 0.0
4494 H 29.952707399523312 33.202176478514545 14.252418633150114 H 0.0 **** 0.52
4495 H 28.96260149477654 33.89985350588135 15.160620534326341 H 0.0 **** 0.52
4496 M 29.21068857466205 33.191911060266065 14.713144695725987 M 0.0 **** -1.04
4497 O 13.263062169077749 5.251932123806732 11.684366416414882 O 0.0 **** 0.0
4498 H 13.52688226635469 4.614357506208137 11.020945855079297 H 0.0 **** 0.52
4499 H 13.543033293122292 6.096156271627628 11.33063081024219 H 0.0 **** 0.52
4500 M 13.332675082759145 5.278385702578873 11.554157580459297 M 0.0 **** -1.04
4501 O 35.949479541246795 46.40912003315031 25.559083875090476 O 0.0 **** 0.0
4502 H 35.75449495205629 47.327773774511115 25.74424868102299 H 0.0 **** 0.52
4503 H 36.04136643509778 46.00468126523639 26.421762066740012 H 0.0 **** 0.52
4504 M 35.93628133632337 46.474946288739424 25.693220707082727 M 0.0 **** -1.04
4505 O 15.139380799190066 26.920725349956783 0.7433886527371774 O 0.0 **** 0.0
4506 H 15.678921971386513 27.70981714640041 0.7929706666178655 H 0.0 **** 0.52
4507 H 15.429258911056456 26.48164865758504 -0.05624349120518701 H 0.0 **** 0.52
4508 M 15.245557395496107 26.965531319802693 0.6473725230711818 M 0.0 **** -1.04
4509 O 33.18369864957232 24.27024277354786 45.55701533736307 O 0.0 **** 0.0
4510 H 32.311495599219434 24.257641223888434 45.95113787075988 H 0.0 **** 0.52
4511 H 33.579600060571465 25.08116535120823 45.87622600077416 H 0.0 **** 0.52
4512 M 33.12272597005081 24.372437665248913 45.64833135024785 M 0.0 **** -1.04
4513 O 35.205056647301525 19.269098040001268 39.03771317702613 O 0.0 **** 0.0
4514 H 34.80000842905406 20.052902308087116 38.66647817052536 H 0.0 **** 0.52
4515 H 34.65675867816503 18.54715392700114 38.730473771462776 H 0.0 **** 0.52
4516 M 35.083016581127815 19.277016786707286 38.95085925532471 M 0.0 **** -1.04
4517 O 38.451336931721805 47.29353260060199 4.916461025451236 O 0.0 **** 0.0
4518 H 37.856627620179836 48.03134326034612 5.051305566469827 H 0.0 **** 0.52
4519 H 38.704844920215834 47.02511815546272 5.799590210222963 H 0.0 **** 0.52
4520 M 38.4076590158016 47.35362155375569 5.0467741682832985 M 0.0 **** -1.04
4521 O 31.727992039881258 32.5662449133479 45.48524737422937 O 0.0 **** 0.0
4522 H 31.46275242126704 32.38461799227327 44.58364405401899 H 0.0 **** 0.52
4523 H 32.086670011061216 31.737071848400106 45.801554033748815 H 0.0 **** 0.52
4524 M 31.73995284696511 32.43685037481038 45.410322349207235 M 0.0 **** -1.04
4525 O 21.127792506665624 35.20901127237219 4.278786525294214 O 0.0 **** 0.0
4526 H 20.58486124688164 34.83066840894403 4.970386905103272 H 0.0 **** 0.52
4527 H 21.627364882884425 35.89855538097463 4.716033092174331 H 0.0 **** 0.52
4528 M 21.122242090389978 35.24884870617732 4.423293236515457 M 0.0 **** -1.04
4529 O 18.145769886214485 23.94496942465734 42.619496450742446 O 0.0 **** 0.0
4530 H 19.002794162574435 24.110786491564426 42.226759546137316 H 0.0 **** 0.52
4531 H 18.102141834611647 22.99279559834741 42.707192269482114 H 0.0 **** 0.52
4532 M 18.249894520821396 23.844306216238905 42.58044721080262 M 0.0 **** -1.04
4533 O 36.12828204035219 49.29950137557073 22.5114425942324 O 0.0 **** 0.0
4534 H 36.678563198858576 48.63995673198594 22.933841123133416 H 0.0 **** 0.52
4535 H 36.72893546891056 49.78905370353666 21.949497976425207 H 0.0 **** 0.52
4536 M 36.27561563751041 49.27773954676029 22.493578985743323 M 0.0 **** -1.04
4537 O 35.53155062823049 27.508756642025453 6.01647091569243 O 0.0 **** 0.0
4538 H 35.166164023662716 28.304359119166154 5.62950968832907 H 0.0 **** 0.52
4539 H 36.11963691041359 27.16342527291313 5.344808415144996 H 0.0 **** 0.52
4540 M 35.560059446451596 27.566397530725062 5.880953761182135 M 0.0 **** -1.04
4541 O 44.484328715467726 49.23672455717406 18.222319691100108 O 0.0 **** 0.0
4542 H 45.332267556788246 49.19366270500363 17.780308023225555 H 0.0 **** 0.52
4543 H 44.07449114239471 50.03047356323 17.87848303362393 H 0.0 **** 0.52
4544 M 44.54041164562163 49.33282194491537 18.12172161499705 M 0.0 **** -1.04
4545 O 30.183528919924655 31.236347756194583 3.112299952881717 O 0.0 **** 0.0
4546 H 31.12499852763831 31.065481094531606 3.086453431691865 H 0.0 **** 0.52
4547 H 29.786148560019043 30.446789687809652 2.744990366391624 H 0.0 **** 0.52
4548 M 30.253179440109776 31.113401270923873 3.061971106446299 M 0.0 **** -1.04
4549 O 20.95304737712775 21.262532737584124 7.75775922545446 O 0.0 **** 0.0
4550 H 21.42701458100653 22.093319439582743 7.720635888699196 H 0.0 **** 0.52
4551 H 21.591426569873857 20.63715308106785 8.100690046546232 H 0.0 **** 0.52
4552 M 21.095442393288938 21.288827207059512 7.796906099077634 M 0.0 **** -1.04
4553 O 5.451526465905682 25.39330051167454 40.67572276579876 O 0.0 **** 0.0
4554 H 4.68611427347772 25.813304228087883 40.28333259643007 H 0.0 **** 0.52
4555 H 5.31357774151681 24.45757948130741 40.52867213831709 H 0.0 **** 0.52
4556 M 5.335884956117916 25.327282811333575 40.60666728533784 M 0.0 **** -1.04
4557 O 5.358441577338994 31.144735777872306 39.724808449588785 O 0.0 **** 0.0
4558 H 5.4131420704314435 31.31182283639428 38.783894668846834 H 0.0 **** 0.52
4559 H 5.984293577762505 31.755642479930074 40.113820705899535 H 0.0 **** 0.52
4560 M 5.445561312655363 31.244329046406495 39.65415759739939 M 0.0 **** -1.04
4561 O 44.28406586657661 12.686633319015222 11.427538976996708 O 0.0 **** 0.0
4562 H 44.16786527716259 12.27982705335517 10.568915437511603 H 0.0 **** 0.52
4563 H 44.6188759221028 11.982826377882667 11.983225639653414 H 0.0 **** 0.52
4564 M 44.31205017735448 12.544460392094628 11.388759650260326 M 0.0 **** -1.04
4565 O 44.387884013510686 37.349360537974455 34.002462390774014 O 0.0 **** 0.0
4566 H 44.43347543312861 36.75094737855219 34.74815157520696 H 0.0 **** 0.52
4567 H 43.58539878693391 37.10057920270547 33.54381880644125 H 0.0 **** 0.52
4568 M 44.29099221165358 37.24090901153199 34.03920780937522 M 0.0 **** -1.04
4569 O 27.083933439338093 24.629429498206292 25.730330205473685 O 0.0 **** 0.0
4570 H 26.53129992862514 23.987619348484344 26.176318286440893 H 0.0 **** 0.52
4571 H 26.99829938348857 25.425549466446427 26.25481751329337 H 0.0 **** 0.52
4572 M 27.002226924762176 24.649183160423178 25.85456282757784 M 0.0 **** -1.04
4573 O 30.030466095403767 23.35063544463038 38.617320585483135 O 0.0 **** 0.0
4574 H 29.567623492141223 22.518131704200176 38.52275037124503 H 0.0 **** 0.52
4575 H 29.760224676583036 23.679420165428247 39.474699009007885 H 0.0 **** 0.52
4576 M 29.936622258650843 23.28615302244873 38.71497022304049 M 0.0 **** -1.04
4577 O 9.43845763282664 49.170005845832094 2.555003097465999 O 0.0 **** 0.0
4578 H 10.081980411686004 49.87461309269817 2.630075404225875 H 0.0 **** 0.52
4579 H 9.939687758543805 48.420417811228816 2.2338881272926128 H 0.0 **** 0.52
4580 M 9.58500035979792 49.16424784066686 2.5235060878722977 M 0.0 **** -1.04
4581 O 35.340468904946064 45.14019973224642 27.798245369950067 O 0.0 **** 0.0
4582 H 35.155808926646 44.2010516933075 27.786765126652156 H 0.0 **** 0.52
4583 H 34.70552871004264 45.50209126546366 28.416398662060104 H 0.0 **** 0.52
4584 M 35.23555008429349 45.06630312317553 27.87590667808782 M 0.0 **** -1.04
4585 O 1.3513797587932728 25.004516475319832 39.232268294856766 O 0.0 **** 0.0
4586 H 0.7458455592919888 24.826282929622984 39.95184505576026 H 0.0 **** 0.52
4587 H 0.7944658728072941 25.329672122758218 38.52491487177066 H 0.0 **** 0.52
4588 M 1.2025716456868343 25.023324377091782 39.233833698839916 M 0.0 **** -1.04
4589 O 42.668977181405715 41.170467501250464 20.714076923947374 O 0.0 **** 0.0
4590 H 42.0090886393913 41.31264115555003 21.392724904720225 H 0.0 **** 0.52
4591 H 43.39074529299549 41.750848953522734 20.95581361865534 H 0.0 **** 0.52
4592 M 42.676898884749285 41.26296424582326 20.831897777061613 M 0.0 **** -1.04
4593 O 38.52187265125025 39.854045635763654 13.243938961337061 O 0.0 **** 0.0
4594 H 37.754229871608686 40.2796726592367 13.625769094724808 H 0.0 **** 0.52
4595 H 39.19065290355422 40.53855697068527 13.223824682197014 H 0.0 **** 0.52
4596 M 38.50921714094136 39.99615703571098 13.290243276231225 M 0.0 **** -1.04
4597 O 31.995231234821617 20.162169715089657 48.5062297101502 O 0.0 **** 0.0
4598 H 32.645747554502094 20.857877871931866 48.601347000217224 H 0.0 **** 0.52
4599 H 32.29281603750185 19.657184486888102 47.74948645067503 H 0.0 **** 0.52
4600 M 32.11659986536743 20.186584605526946 48.42153399156671 M 0.0 **** -1.04
4601 O 22.647967704774192 4.3607814658766415 28.43777543187368 O 0.0 **** 0.0
4602 H 22.489022745768168 5.081743751870178 29.047020950876984 H 0.0 **** 0.52
4603 H 21.870658027876235 3.807274819507626 28.512933112380598 H 0.0 **** 0.52
4604 M 22.52811491353223 4.382218564103596 28.525387908793896 M 0.0 **** -1.04
4605 O 43.448767321253456 32.44187013789343 30.83241527829301 O 0.0 **** 0.0
4606 H 43.32422346107902 32.932125486703114 30.01978463697467 H 0.0 **** 0.52
4607 H 43.7720019990052 33.09102529553127 31.457192292556517 H 0.0 **** 0.52
4608 M 43.4742025087567 32.587729515672635 30.80836735548158 M 0.0 **** -1.04
4609 O 26.03242597298788 21.15440982943592 38.78380985518035 O 0.0 **** 0.0
4610 H 25.294431745018272 20.871048865349326 38.24408793566055 H 0.0 **** 0.52
4611 H 26.807337192315387 20.870454060729514 38.298928564321045 H 0.0 **** 0.52
4612 M 26.037152023443753 21.081786077208392 38.65264772808758 M 0.0 **** -1.04
4613 O 10.53881877368417 47.26841484395543 12.58904307646916 O 0.0 **** 0.0
4614 H 9.8791286524188 47.75569289340036 12.09548726283316 H 0.0 **** 0.52
4615 H 10.178293956643202 46.38488538319826 12.664064338799129 H 0.0 **** 0.52
4616 M 10.408218754659288 47.21768894710126 12.535465727933968 M 0.0 **** -1.04
4617 O 34.0770446042409 16.930091460853035 22.456956272135983 O 0.0 **** 0.0
4618 H 34.419526791517235 16.313713174068965 23.104268564773196 H 0.0 **** 0.52
4619 H 33.679576480578525 17.628336217998744 22.977246661348122 H 0.0 **** 0.52
4620 M 34.07000628292357 16.940571356627217 22.60642378932814 M 0.0 **** -1.04
4621 O 27.625893828132266 32.19761362140835 34.66598767459972 O 0.0 **** 0.0
4622 H 26.80543352870261 32.381082549927825 34.20836994306333 H 0.0 **** 0.52
4623 H 28.247578304892627 32.83089762227189 34.30725607400916 H 0.0 **** 0.52
4624 M 27.600448075940665 32.30216837750487 34.56148464128969 M 0.0 **** -1.04
4625 O 35.24574798546389 24.148888266637385 6.698443297627193 O 0.0 **** 0.0
4626 H 35.71646547340351 23.629555021373704 6.04656411251446 H 0.0 **** 0.52
4627 H 34.33295539053185 24.12426031100827 6.411334381819486 H 0.0 **** 0.52
4628 M 35.18915702075445 24.079254179331542 6.578240616694842 M 0.0 **** -1.04
4629 O 6.897127499832817 40.43626739238193 5.356325370873789 O 0.0 **** 0.0
4630 H 7.4609137831911925 41.17051767289801 5.599739525953987 H 0.0 **** 0.52
4631 H 6.696565645371665 40.0024657248322 6.1856753556815125 H 0.0 **** 0.52
4632 M 6.943625194510991 40.47472807530597 5.493652348193038 M 0.0 **** -1.04
4633 O 19.488423426044164 15.789616429777945 39.372176172433 O 0.0 **** 0.0
4634 H 18.9088678353323 16.52488644320975 39.57148167472579 H 0.0 **** 0.52
4635 H 20.110517718099228 16.140307880562585 38.73480351847251 H 0.0 **** 0.52
4636 M 19.49386857030834 15.928633608030209 39.31609851672495 M 0.0 **** -1.04
4637 O 19.969983867273207 17.47196684883029 28.90485856547643 O 0.0 **** 0.0
4638 H 20.403610434787723 17.626484941897814 29.744097290553512 H 0.0 **** 0.52
4639 H 20.413662974669815 18.05999291699453 28.29362665121171 H 0.0 **** 0.52
4640 M 20.082290508740357 17.567022039403852 28.934045751507 M 0.0 **** -1.04
4641 O 3.580382455229355 37.64878300983473 20.02545044140086 O 0.0 **** 0.0
4642 H 2.6804937475517505 37.42133061105709 19.791584555086096 H 0.0 **** 0.52
4643 H 3.6738729516973336 37.35659091332421 20.93215499075148 H 0.0 **** 0.52
4644 M 3.477153796788116 37.58226181148891 20.111582607129257 M 0.0 **** -1.04
4645 O 37.08815476651431 10.10662437082998 33.81094922312665 O 0.0 **** 0.0
4646 H 37.199547523943515 9.654465515743539 32.974664169646815 H 0.0 **** 0.52
4647 H 37.94649389027722 10.049674560152097 34.23075851940796 H 0.0 **** 0.52
4648 M 37.212292498308265 10.041451332448542 33.75763542684279 M 0.0 **** -1.04
4649 O 8.30985081989873 19.968449921486677 37.64058997354659 O 0.0 **** 0.0
4650 H 7.53069672074802 20.481082407124283 37.4252861013129 H 0.0 **** 0.52
4651 H 7.985573307615432 19.262133954282085 38.199330933400404 H 0.0 **** 0.52
4652 M 8.168597377858925 19.94365524133894 37.68455417440658 M 0.0 **** -1.04
4653 O 22.533474266741635 45.146166879373766 5.3532773624632455 O 0.0 **** 0.0
4654 H 22.9071331939917 45.20624013286957 4.474073692300692 H 0.0 **** 0.52
4655 H 22.210122721208112 44.24740457976992 5.415723857780662 H 0.0 **** 0.52
4656 M 22.539914396924193 45.038803891789826 5.248722616835437 M 0.0 **** -1.04
4657 O 9.264085447114814 36.17523343459543 28.63701370815655 O 0.0 **** 0.0
4658 H 9.139765406923102 35.2485119664476 28.841857697089583 H 0.0 **** 0.52
4659 H 9.800732459943546 36.175923787141514 27.84439883198738 H 0.0 **** 0.52
4660 M 9.316867985377288 36.05668943277957 28.561771535134802 M 0.0 **** -1.04
4661 O 45.651623162655454 7.749321916491239 20.08009353174144 O 0.0 **** 0.0
4662 H 45.25257968302107 7.55422267852639 19.232196269941312 H 0.0 **** 0.52
4663 H 44.92627014219881 7.703340681427637 20.702970972050366 H 0.0 **** 0.52
4664 M 45.50768690281499 7.7184600871531845 20.051288427626787 M 0.0 **** -1.04
4665 O 17.48316395115956 24.750548280932836 47.65387438233377 O 0.0 **** 0.0
4666 H 16.5594282546092 24.97599492094596 47.543808553030374 H 0.0 **** 0.52
4667 H 17.881289065250176 25.540926159702373 48.01860480667062 H 0.0 **** 0.52
4668 M 17.41587957008336 24.880586396147947 47.686474622816235 M 0.0 **** -1.04
4669 O 18.694901839949523 22.494702250288128 7.974622617055552 O 0.0 **** 0.0
4670 H 19.461811408894476 21.974587653452602 7.734706529811139 H 0.0 **** 0.52
4671 H 18.42883426000313 22.920068811409323 7.1594544720138265 H 0.0 **** 0.52
4672 M 18.759016171661017 22.48257281299813 7.839558661748346 M 0.0 **** -1.04
4673 O 25.481823024314046 25.491026206654308 11.40271803095513 O 0.0 **** 0.0
4674 H 25.236898055071553 24.80809058736071 10.77834664947489 H 0.0 **** 0.52
4675 H 26.178649616195596 25.097414920436847 11.927820303501054 H 0.0 **** 0.52
4676 M 25.539671764371683 25.353214459454165 11.390010650013917 M 0.0 **** -1.04
4677 O 4.6549651064638775 46.86444072931858 2.9302046844440492 O 0.0 **** 0.0
4678 H 4.262275290428319 47.4258516595897 3.598665972752211 H 0.0 **** 0.52
4679 H 5.227529872664679 47.44822392948436 2.432614715780926 H 0.0 **** 0.52
4680 M 4.677991782445876 47.011039939868 2.9520781042611945 M 0.0 **** -1.04
4681 O 44.821726720685454 28.848790832681022 17.31881080796734 O 0.0 **** 0.0
4682 H 44.53243511096115 28.998683353407127 18.218850260191417 H 0.0 **** 0.52
4683 H 44.50911472506166 29.613719649287155 16.835708924117796 H 0.0 **** 0.52
4684 M 44.744674791347336 28.965899288350876 17.372183893552688 M 0.0 **** -1.04
4685 O 37.28104377406135 22.26209402208375 32.78656988974174 O 0.0 **** 0.0
4686 H 36.52586389664187 21.92770315152678 33.27042383763299 H 0.0 **** 0.52
4687 H 37.795967315380175 22.73362709408774 33.44135232242854 H 0.0 **** 0.52
4688 M 37.250287701982536 22.279650130825797 32.93232972014478 M 0.0 **** -1.04
4689 O 43.736974560181665 7.625556385952869 1.0831773694567326 O 0.0 **** 0.0
4690 H 43.5069319397319 7.514444534417031 0.1607010682824742 H 0.0 **** 0.52
4691 H 43.89852311163935 6.736518423974701 1.3989976498661734 H 0.0 **** 0.52
4692 M 43.72820635035684 7.497523853477809 1.0055174494046417 M 0.0 **** -1.04
4693 O 2.2015957430165605 2.8766593659690614 14.469755686757624 O 0.0 **** 0.0
4694 H 2.684261805506865 3.469345202014061 13.89357444437514 H 0.0 **** 0.52
4695 H 2.798564054216827 2.7126222908022797 15.19978993391533 H 0.0 **** 0.52
4696 M 2.3398024709882197 2.931531125227181 14.489451274418409 M 0.0 **** -1.04
4697 O 8.271316933293875 6.427596319312811 16.342399826746043 O 0.0 **** 0.0
4698 H 8.10713702369695 5.809733840474916 17.054803349128964 H 0.0 **** 0.52
4699 H 8.369293153031215 5.877359879769481 15.565308640041279 H 0.0 **** 0.52
4700 M 8.262841659573347 6.278064407933878 16.33411877344718 M 0.0 **** -1.04
4701 O 17.02072115866315 36.90160860935796 38.531166421437625 O 0.0 **** 0.0
4702 H 16.318709193038607 36.25115506076099 38.54898243701986 H 0.0 **** 0.52
4703 H 16.673215773576374 37.64338806882879 39.02637761793817 H 0.0 **** 0.52
4704 M 16.886369066058435 36.91329978578836 38.59684013864929 M 0.0 **** -1.04
4705 O 31.83683490244649 17.272567853067148 10.238529273908439 O 0.0 **** 0.0
4706 H 32.42442807280764 17.60169147305057 9.558351941870505 H 0.0 **** 0.52
4707 H 30.985220139770437 17.65391463258774 10.025093275326201 H 0.0 **** 0.52
4708 M 31.80303691340321 17.3635172717095 10.12413542713672 M 0.0 **** -1.04
4709 O 19.84142706250073 16.82359135739275 44.37766576399485 O 0.0 **** 0.0
4710 H 19.641064523145754 15.938474969923227 44.682053565954824 H 0.0 **** 0.52
4711 H 20.24006126157181 16.696807796021854 43.51670933374361 H 0.0 **** 0.52
4712 M 19.86680850357414 16.694055938820835 44.30641825083521 M 0.0 **** -1.04
4713 O 10.373983784681485 7.157648850469923 21.87774583597129 O 0.0 **** 0.0
4714 H 10.941098748067901 6.397634724682465 21.74741157391589 H 0.0 **** 0.52
4715 H 9.552363633629248 6.790825815691755 22.204257604896696 H 0.0 **** 0.52
4716 M 10.341403750635749 7.013399509841647 21.90285918676138 M 0.0 **** -1.04
4717 O 15.934481314753846 33.47266853415812 6.349206866451685 O 0.0 **** 0.0
4718 H 15.22452589701519 33.752448007151614 5.771352534657195 H 0.0 **** 0.52
4719 H 16.585997060911602 33.090491670235124 5.761248168186976 H 0.0 **** 0.52
4720 M 15.927000277940639 33.45956060381866 6.199968657445392 M 0.0 **** -1.04
4721 O 14.717220446291051 7.597760641839674 34.64321335466028 O 0.0 **** 0.0
4722 H 14.358590525087081 7.687263947364899 35.5261641870752 H 0.0 **** 0.52
4723 H 14.515271926479855 6.696354579175125 34.39239116633842 H 0.0 **** 0.52
4724 M 14.645459827883272 7.4938268585712295 34.724133332992054 M 0.0 **** -1.04
4725 O 36.445078897548555 16.112160638875586 6.8148034365711325 O 0.0 **** 0.0
4726 H 36.060064500130906 15.916645824957785 7.669067050182534 H 0.0 **** 0.52
4727 H 36.33534470131822 15.305233146381246 6.311757108701542 H 0.0 **** 0.52
4728 M 36.381744719568786 15.983834902076692 6.8597638111651875 M 0.0 **** -1.04
4729 O 49.06022197065668 30.657223152210015 35.850394733032594 O 0.0 **** 0.0
4730 H 49.539705845599556 31.21815611977492 36.46004974459316 H 0.0 **** 0.52
4731 H 48.217984373483844 30.5027085097349 36.27816743830801 H 0.0 **** 0.52
4732 M 49.01378502245598 30.70924972342391 35.98319897008666 M 0.0 **** -1.04
4733 O 24.505128468227337 3.706909906599577 32.93277511040796 O 0.0 **** 0.0
4734 H 25.301165843819597 3.7224753095565006 33.4641034032217 H 0.0 **** 0.52
4735 H 24.385734100750977 2.7845785239354868 32.706326110954976 H 0.0 **** 0.52
4736 M 24.5917476181562 3.5908321440824764 32.97180322437255 M 0.0 **** -1.04
4737 O 16.4880878557859 35.11967228842356 20.87027272972489 O 0.0 **** 0.0
4738 H 16.39216747751525 35.36811170745102 19.95086718703616 H 0.0 **** 0.52
4739 H 15.664645250514702 35.38732169857242 21.27835900717758 H 0.0 **** 0.52
4740 M 16.370397978565766 35.18573821667857 20.80481756113819 M 0.0 **** -1.04
4741 O 2.8065347820007673 22.23778268152565 15.52205045382985 O 0.0 **** 0.0
4742 H 2.65250719578561 21.992310108071685 14.609774595432167 H 0.0 **** 0.52
4743 H 2.8253803707179728 23.19475447210702 15.513176893833334 H 0.0 **** 0.52
4744 M 2.789229606734949 22.3288633628474 15.40413130443937 M 0.0 **** -1.04
4745 O 17.837064603893726 35.20826373739127 7.476440092754373 O 0.0 **** 0.0
4746 H 17.94225662171974 35.21794789664584 8.427790899613619 H 0.0 **** 0.52
4747 H 17.152215633349115 34.55873386335368 7.317312290949609 H 0.0 **** 0.52
4748 M 17.762861049356392 35.126355225449416 7.57785472260386 M 0.0 **** -1.04
4749 O 48.037570858735904 13.732202266940485 9.144017812203492 O 0.0 **** 0.0
4750 H 47.47244843366443 13.721403811966345 8.371523204719066 H 0.0 **** 0.52
4751 H 47.73817577562613 14.487664078471825 9.649852330536804 H 0.0 **** 0.52
4752 M 47.92690113798761 13.827528383406829 9.109882200784613 M 0.0 **** -1.04
4753 O 44.31934472580688 27.674696492825973 27.570129224942118 O 0.0 **** 0.0
4754 H 44.51616320234338 26.8976929576444 27.04691115554551 H 0.0 **** 0.52
4755 H 45.15684742253531 28.13210347094614 27.644948616736695 H 0.0 **** 0.52
4756 M 44.45175048825287 27.63378339696365 27.512728636338384 M 0.0 **** -1.04
4757 O 44.538766334041284 0.6655739489088717 14.352022434808717 O 0.0 **** 0.0
4758 H 43.94386409296126 0.0777314217326861 14.817599719498503 H 0.0 **** 0.52
4759 H 44.28922667890719 0.58013059775503 13.431882998586573 H 0.0 **** 0.52
4760 M 44.43066720836474 0.5793845631586265 14.293832573028823 M 0.0 **** -1.04
4761 O 5.513046303499337 28.768549485204947 3.259188289271492 O 0.0 **** 0.0
4762 H 5.80341302889822 28.227746276296614 3.993658859533703 H 0.0 **** 0.52
4763 H 6.290352374840722 29.266253696325208 3.0055877977110015 H 0.0 **** 0.52
4764 M 5.649721718435082 28.763032278527785 3.320746285873426 M 0.0 **** -1.04
4765 O 1.1036523149777366 5.458977541718632 17.43898453351123 O 0.0 **** 0.0
4766 H 1.0401410429429276 4.851387384960205 18.175890060780343 H 0.0 **** 0.52
4767 H 1.8685574088005907 5.998818116797096 17.638282727867768 H 0.0 **** 0.52
4768 M 1.1934396190512047 5.450304308918334 17.558830036760245 M 0.0 **** -1.04
4769 O 31.84928098366229 14.055745763635542 26.36681370496255 O 0.0 **** 0.0
4770 H 31.69869402814326 13.411466668696551 27.058519468742475 H 0.0 **** 0.52
4771 H 31.75303764359958 13.561083281703965 25.5530113990386 H 0.0 **** 0.52
4772 M 31.817683178783852 13.909946866234003 26.351183091368004 M 0.0 **** -1.04
4773 O 16.498250734985508 25.058358840871335 14.72487126654452 O 0.0 **** 0.0
4774 H 16.698534722474186 25.99236038657827 14.663596137023404 H 0.0 **** 0.52
4775 H 17.138513695852993 24.637474034765148 14.151156494766525 H 0.0 **** 0.52
4776 M 16.60585127696385 25.124044057777127 14.643584829151736 M 0.0 **** -1.04
4777 O 39.82541400210592 0.11564641109647766 45.997390593172355 O 0.0 **** 0.0
4778 H 40.1678965578267 0.25672369922440197 45.11476286779151 H 0.0 **** 0.52
4779 H 40.604748418447286 0.04034776120042238 46.54802315388435 H 0.0 **** 0.52
4780 M 39.96901992264704 0.12406690432487721 45.95489105335908 M 0.0 **** -1.04
4781 O 0.6220495866412108 44.765302578010946 48.9171608901385 O 0.0 **** 0.0
4782 H 0.8029952064497934 45.421865243271746 48.24454470323554 H 0.0 **** 0.52
4783 H 0.6504765865531255 45.2516696353306 49.74109610100667 H 0.0 **** 0.52
4784 M 0.6488513527677924 44.9116122814824 48.93653176901884 M 0.0 **** -1.04
4785 O 35.64645802866901 40.26547885804206 30.407209748516795 O 0.0 **** 0.0
4786 H 34.87807492458701 40.39812111055142 29.852031727009184 H 0.0 **** 0.52
4787 H 35.292273223936384 40.19070009898697 31.293318773049467 H 0.0 **** 0.52
4788 M 35.50275567701092 40.272886690878984 30.449573721578634 M 0.0 **** -1.04
4789 O 13.547959883774169 0.5094015595753009 28.607944802672847 O 0.0 **** 0.0
4790 H 12.800630267957274 0.8871527645920996 29.07165842997709 H 0.0 **** 0.52
4791 H 13.524587205050153 -0.4207619878153679 28.83262120170751 H 0.0 **** 0.52
4792 M 13.449300085262394 0.43868628512347185 28.696067150274516 M 0.0 **** -1.04
4793 O 30.424094125544574 30.358600675533516 31.664793531748117 O 0.0 **** 0.0
4794 H 30.780377694078453 31.246515044397604 31.634814273862006 H 0.0 **** 0.52
4795 H 31.134046723778393 29.8040841873052 31.34120852269958 H 0.0 **** 0.52
4796 M 30.5605861999926 30.401279771292753 31.61953258194537 M 0.0 **** -1.04
4797 O 7.919342196284337 29.166677092608005 7.554826232459263 O 0.0 **** 0.0
4798 H 7.665610112861232 29.864834454630785 6.951149598919699 H 0.0 **** 0.52
4799 H 8.492792499040052 28.59993733076912 7.038889579973052 H 0.0 **** 0.52
4800 M 7.960270810636478 29.183500459219715 7.411501334014943 M 0.0 **** -1.04
4801 O 5.680012118016201 12.33997160488714 44.23226937305818 O 0.0 **** 0.0
4802 H 4.990013000394889 12.995258488747131 44.33585150387612 H 0.0 **** 0.52
4803 H 5.361103662662195 11.57732510463571 44.71486405817694 H 0.0 **** 0.52
4804 M 5.550859218055706 12.326228178801115 44.30730727454959 M 0.0 **** -1.04
4805 O 36.96224644589767 37.431913804315485 14.00924526196593 O 0.0 **** 0.0
4806 H 37.17665925348796 38.258001553427206 13.575845948734568 H 0.0 **** 0.52
4807 H 36.02446730214811 37.316749800353215 13.855830998175477 H 0.0 **** 0.52
4808 M 36.86964676773026 37.52292193312955 13.934125878974136 M 0.0 **** -1.04
4809 O 8.800049582059076 17.867973062880875 7.697132931418125 O 0.0 **** 0.0
4810 H 9.581972031875349 17.77563239011871 7.152800544367949 H 0.0 **** 0.52
4811 H 8.676004573712605 17.002934003880743 8.087708709737875 H 0.0 **** 0.52
4812 M 8.884265561060161 17.745416672892013 7.67745060239497 M 0.0 **** -1.04
4813 O 43.77657160224626 8.983849920807607 25.51816839114852 O 0.0 **** 0.0
4814 H 43.93681889362406 9.722983608620709 24.931456694823964 H 0.0 **** 0.52
4815 H 43.29291201147512 9.361181454061231 26.252962654059374 H 0.0 **** 0.52
4816 M 43.73517155048964 9.126771369105171 25.53712479563565 M 0.0 **** -1.04
4817 O 2.9136748097285685 47.337025681851195 0.5200377780056087 O 0.0 **** 0.0
4818 H 2.996238187481288 47.97649011941777 1.2274962174278201 H 0.0 **** 0.52
4819 H 3.056385026656286 47.843779464949534 -0.2793765686194334 H 0.0 **** 0.52
4820 M 2.942512928182932 47.48375589408857 0.508266714553713 M 0.0 **** -1.04
4821 O 32.85223762643514 16.62008039747979 33.93391126017971 O 0.0 **** 0.0
4822 H 33.28236472051895 17.32853138776981 33.455040801954645 H 0.0 **** 0.52
4823 H 33.44630295834446 15.874856752885657 33.84471668719522 H 0.0 **** 0.52
4824 M 32.98334717733001 16.615373298735644 33.86119166923925 M 0.0 **** -1.04
4825 O 35.79358414633017 27.20303825416312 44.67120575464051 O 0.0 **** 0.0
4826 H 35.523739658412005 26.619758916876712 43.96184140470077 H 0.0 **** 0.52
4827 H 35.86199419009833 28.064874184994892 44.26036853263588 H 0.0 **** 0.52
4828 M 35.76779773962662 27.23869697791291 44.52780573755947 M 0.0 **** -1.04
4829 O 28.08982101551598 7.82750329396616 7.0767100541921835 O 0.0 **** 0.0
4830 H 27.79332103490988 7.788962597907947 6.167407212551154 H 0.0 **** 0.52
4831 H 27.326338051101985 7.562296998888314 7.5895338235839915 H 0.0 **** 0.52
4832 M 27.9541297348692 7.788619691535885 7.025956134782277 M 0.0 **** -1.04
4833 O 14.00634305914185 38.939011467833474 36.837495994136155 O 0.0 **** 0.0
4834 H 13.607165766669626 38.23370921044966 37.34684347304788 H 0.0 **** 0.52
4835 H 14.892719022552951 38.628997504387414 36.65186637548547 H 0.0 **** 0.52
4836 M 14.06871088656256 38.8090384035396 36.87893611050761 M 0.0 **** -1.04
4837 O 42.550604341529684 49.26401298170896 29.78110697436266 O 0.0 **** 0.0
4838 H 42.532629038279815 49.93928159960246 29.10293437626748 H 0.0 **** 0.52
4839 H 42.23672838569835 48.47385292969527 29.341381026069186 H 0.0 **** 0.52
4840 M 42.508123167941925 49.249305301927315 29.63800232398384 M 0.0 **** -1.04
4841 O 29.426934622636203 49.77474451913401 26.77992122927419 O 0.0 **** 0.0
4842 H 29.95716128679355 49.158035915943735 27.284658699903577 H 0.0 **** 0.52
4843 H 30.0568010719126 50.23440169100188 26.22475170177916 H 0.0 **** 0.52
4844 M 29.575441011185465 49.75464014208162 26.7734652666517 M 0.0 **** -1.04
4845 O 14.492255507567906 0.5516411958278759 48.2272523024622 O 0.0 **** 0.0
4846 H 15.365315641394433 0.16728325989979487 48.30639742419385 H 0.0 **** 0.52
4847 H 14.639278619386966 1.3951623210890514 47.799369743407546 H 0.0 **** 0.52
4848 M 14.622838958953619 0.6104201547767005 48.18260975285885 M 0.0 **** -1.04
4849 O 3.905771523830751 31.85121389962779 3.0408376161555424 O 0.0 **** 0.0
4850 H 3.674571275163977 31.356506210140402 3.8269924089073015 H 0.0 **** 0.52
4851 H 3.9575957745192483 31.1918149051654 2.3489304711457137 H 0.0 **** 0.52
4852 M 3.8828091322480134 31.703474422037548 3.0529019755320945 M 0.0 **** -1.04
4853 O 46.3794294123774 2.3396538360618804 23.559810148789328 O 0.0 **** 0.0
4854 H 47.269570137586626 2.521982561879363 23.86086408810016 H 0.0 **** 0.52
4855 H 46.260508688258916 1.402766954085822 23.71579563870466 H 0.0 **** 0.52
4856 M 46.47815519894526 2.2430600868476294 23.61831651488108 M 0.0 **** -1.04
4857 O 20.723618061992326 45.15024001608564 22.863035934275942 O 0.0 **** 0.0
4858 H 21.24411530091581 45.27977457988006 23.655836733395034 H 0.0 **** 0.52
4859 H 20.836586134945264 45.9608492845799 22.366669914554848 H 0.0 **** 0.52
4860 M 20.804710076737265 45.2705895223718 22.90098295010415 M 0.0 **** -1.04
4861 O 37.88809518879722 8.577439774783464 3.637295123829038 O 0.0 **** 0.0
4862 H 37.86695096805301 7.726405510267561 3.199662746021628 H 0.0 **** 0.52
4863 H 37.56727391982419 9.193852117102779 2.9790103567583452 H 0.0 **** 0.52
4864 M 37.84431901022939 8.547405060631121 3.4970042903124035 M 0.0 **** -1.04
4865 O 17.738028369942736 12.257875720757731 18.92182606569628 O 0.0 **** 0.0
4866 H 17.05967102146793 12.482230950977169 19.55879100253719 H 0.0 **** 0.52
4867 H 17.560244511402484 12.825532442740048 18.171900736394647 H 0.0 **** 0.52
4868 M 17.628431226204317 12.359263112542216 18.907365387409016 M 0.0 **** -1.04
4869 O 11.665380477554379 3.58579155665565 35.730597515509594 O 0.0 **** 0.0
4870 H 11.729249294946896 4.425942710577495 36.18479648912936 H 0.0 **** 0.52
4871 H 11.219706938355756 3.790621152400867 34.9086196903497 H 0.0 **** 0.52
4872 M 11.6165050424772 3.719561951413965 35.68351785750095 M 0.0 **** -1.04
4873 O 3.7154126840298023 29.68458427011406 1.3351405788192636 O 0.0 **** 0.0
4874 H 4.380954226725771 29.17607512072709 1.798499542236513 H 0.0 **** 0.52
4875 H 2.9184776569427333 29.563706401734507 1.8513891219370606 H 0.0 **** 0.52
4876 M 3.6985927531857046 29.604014402149133 1.4605430430953064 M 0.0 **** -1.04
4877 O 25.513048989725306 10.310785310118034 11.051077253095665 O 0.0 **** 0.0
4878 H 26.228359994054415 9.97797357595181 11.593106065626195 H 0.0 **** 0.52
4879 H 25.257478375548708 11.132949489810724 11.46935679131615 H 0.0 **** 0.52
4880 M 25.57190189937307 10.373427804867413 11.174009186060918 M 0.0 **** -1.04
4881 O 30.88404423641238 23.088214010182703 13.612730245613706 O 0.0 **** 0.0
4882 H 30.35404867530186 23.842448951228263 13.870533606411811 H 0.0 **** 0.52
4883 H 31.141371871591453 23.27319144325431 12.709516319131707 H 0.0 **** 0.52
4884 M 30.849139690531256 23.208444962885224 13.530109967158038 M 0.0 **** -1.04
4885 O 6.08791016880476 11.513576634172281 7.712562535738051 O 0.0 **** 0.0
4886 H 5.493565005403913 11.481236671390597 6.962937800960631 H 0.0 **** 0.52
4887 H 6.115611173221323 10.613066862796593 8.035894326895416 H 0.0 **** 0.52
4888 M 6.015372582095168 11.394160303038376 7.657991339463258 M 0.0 **** -1.04
4889 O 5.108323197763717 31.93603944228572 11.882695845207607 O 0.0 **** 0.0
4890 H 5.027728770437463 32.85587178776876 11.630422887339279 H 0.0 **** 0.52
4891 H 5.3287734274260785 31.482483263210973 11.069113275440124 H 0.0 **** 0.52
4892 M 5.1262266698084815 31.99572819929484 11.746252846906344 M 0.0 **** -1.04
4893 O 39.23429499274928 40.062663083792046 48.234996395098634 O 0.0 **** 0.0
4894 H 38.50537845016837 39.60813404896549 48.65726730214162 H 0.0 **** 0.52
4895 H 39.685861047753455 40.509233455554586 48.95116081292822 H 0.0 **** 0.52
4896 M 39.19879090000623 40.06164415262739 48.38073067271301 M 0.0 **** -1.04
4897 O 49.809805103778324 29.07951989238309 8.514287730528075 O 0.0 **** 0.0
4898 H 48.95885724140345 28.811956419822636 8.167118064524196 H 0.0 **** 0.52
4899 H 50.276737240016345 29.434532491984797 7.7578688885143094 H 0.0 **** 0.52
4900 M 49.76064532144523 29.090714979550796 8.373014295724232 M 0.0 **** -1.04
4901 O 34.02665747345367 16.076034164739475 25.545526982536888 O 0.0 **** 0.0
4902 H 34.48216411143022 16.162278507909978 26.382966300893067 H 0.0 **** 0.52
4903 H 33.51152374311825 15.274136410651048 25.63399791279155 H 0.0 **** 0.52
4904 M 34.01902419174201 15.984421594945564 25.664056103604473 M 0.0 **** -1.04
4905 O 30.837097076440916 12.310449891791762 22.0890198343723 O 0.0 **** 0.0
4906 H 31.408605700168458 12.765090560054695 21.470223951680346 H 0.0 **** 0.52
4907 H 30.97381766430154 11.381331092162469 21.903885097141526 H 0.0 **** 0.52
4908 M 30.927760038097606 12.249710509357982 21.986107081590145 M 0.0 **** -1.04
4909 O 8.077905606548768 39.10004639540511 13.706477907980597 O 0.0 **** 0.0
4910 H 7.213257192493202 39.22120100448927 14.098820785619704 H 0.0 **** 0.52
4911 H 8.602616848798334 39.82089177126477 14.054744444340226 H 0.0 **** 0.52
4912 M 8.034389896354526 39.20783312761666 13.801285711158673 M 0.0 **** -1.04
4913 O 8.945437642006077 41.45946238948787 47.64080504060348 O 0.0 **** 0.0
4914 H 9.338721840429884 40.720870614228865 48.10560555061921 H 0.0 **** 0.52
4915 H 8.002249412373104 41.31137278866267 47.709320734938714 H 0.0 **** 0.52
4916 M 8.875043382931054 41.345956208625545 47.70907681415835 M 0.0 **** -1.04
4917 O 34.09999291012675 40.26927676639385 1.5629515817364634 O 0.0 **** 0.0
4918 H 34.92862407085585 40.492930268846955 1.9867180127040598 H 0.0 **** 0.52
4919 H 34.24191534069374 40.46940404523829 0.6377298175847059 H 0.0 **** 0.52
4920 M 34.2242360718961 40.32352667822024 1.4987594946043217 M 0.0 **** -1.04
4921 O 46.66919546715132 2.6981137582788364 31.363252448398956 O 0.0 **** 0.0
4922 H 46.06226998658013 3.370171542935175 31.673428688016365 H 0.0 **** 0.52
4923 H 46.27810950492011 1.8719621266840676 31.64742549803587 H 0.0 **** 0.52
4924 M 46.54143721175989 2.6783883903384904 31.439336328918777 M 0.0 **** -1.04
4925 O 0.5792486126876046 13.679483659458299 38.594439861524606 O 0.0 **** 0.0
4926 H 1.2551273588227432 13.38893606631406 37.98206866623967 H 0.0 **** 0.52
4927 H 0.7710453838971589 14.605613355823891 38.741840878604464 H 0.0 **** 0.52
4928 M 0.6903221292394537 13.760846204041371 38.534918146833505 M 0.0 **** -1.04
4929 O 44.36374179015382 26.414436009832908 31.37480411011298 O 0.0 **** 0.0
4930 H 44.66150308266448 27.233197546420744 31.77128355661185 H 0.0 **** 0.52
4931 H 44.015343680190156 25.905950882404657 32.10712273968918 H 0.0 **** 0.52
4932 M 44.35725948764957 26.454155437684612 31.519304146235417 M 0.0 **** -1.04
4933 O 46.49362966367346 47.26144089366345 21.705369347292475 O 0.0 **** 0.0
4934 H 46.30501046754809 47.25147484861975 22.643746221447355 H 0.0 **** 0.52
4935 H 45.92797183338579 46.581364205638394 21.339642979457743 H 0.0 **** 0.52
4936 M 46.39707285889311 47.17310616393655 21.778675713725917 M 0.0 **** -1.04
4937 O 21.202722009905198 43.38450906705853 48.40369820307698 O 0.0 **** 0.0
4938 H 20.944368049679376 44.30437983993271 48.346077688596516 H 0.0 **** 0.52
4939 H 20.621770844023846 43.013204580223984 49.06766846556405 H 0.0 **** 0.52
4940 M 21.095280853799743 43.454732504917935 48.481319064570144 M 0.0 **** -1.04
4941 O 23.85139931624303 21.12799938237 20.54330560749542 O 0.0 **** 0.0
4942 H 24.391608466336322 21.42276627985705 19.810151334665584 H 0.0 **** 0.52
4943 H 23.397960603688528 20.353259204447497 20.21104169935789 H 0.0 **** 0.52
4944 M 23.86250694753331 21.06655609037737 20.40691880981604 M 0.0 **** -1.04
4945 O 17.321023557769138 5.718498008789062 1.7951243514739446 O 0.0 **** 0.0
4946 H 17.08677696241658 5.996844729263188 2.680494549603985 H 0.0 **** 0.52
4947 H 18.269412632957767 5.592701807047291 1.8261330778103613 H 0.0 **** 0.52
4948 M 17.412443393634504 5.738026575000035 1.9124325179292896 M 0.0 **** -1.04
4949 O 35.0343454461969 32.382994625685974 45.22769636792417 O 0.0 **** 0.0
4950 H 35.080892532667015 32.985283290635465 45.970200110504365 H 0.0 **** 0.52
4951 H 34.89132915483204 31.523662301698813 45.62433497663008 H 0.0 **** 0.52
4952 M 35.02199652288417 32.350090210559145 45.37352075539821 M 0.0 **** -1.04
4953 O 42.04538184335792 1.4460221455471343 7.693604325387552 O 0.0 **** 0.0
4954 H 42.92963015050797 1.0927099415028692 7.596105908810774 H 0.0 **** 0.52
4955 H 42.05131088425445 1.8749058481626442 8.549321058329697 H 0.0 **** 0.52
4956 M 42.15933536958593 1.4556960150797977 7.790665631959605 M 0.0 **** -1.04
4957 O 2.1630010513855993 32.11719362828444 45.41115100051871 O 0.0 **** 0.0
4958 H 1.266471281494269 31.886170303181583 45.65424123278506 H 0.0 **** 0.52
4959 H 2.08560130989612 32.97714512368787 44.99796837840102 H 0.0 **** 0.52
4960 M 2.0383254824532813 32.19770427681254 45.389377412573836 M 0.0 **** -1.04
4961 O 10.734666528809615 34.90097554580197 8.1376807242264 O 0.0 **** 0.0
4962 H 10.348959806596223 34.5739647055041 7.324955312013287 H 0.0 **** 0.52
4963 H 10.003741030017482 34.93140925996432 8.75497317320714 H 0.0 **** 0.52
4964 M 10.591723814542634 34.86300964982164 8.11266329993014 M 0.0 **** -1.04
4965 O 37.89844513478913 32.319568239031405 5.425218446405623 O 0.0 **** 0.0
4966 H 37.59336308306919 33.20241612096376 5.2160932624784095 H 0.0 **** 0.52
4967 H 37.46830909560938 31.757977898558366 4.780371469374785 H 0.0 **** 0.52
4968 M 37.80432833640124 32.36069349425689 5.315899426771033 M 0.0 **** -1.04
4969 O 25.87843659020507 20.58249369667154 12.902017190860857 O 0.0 **** 0.0
4970 H 25.070958903589865 20.324937220381578 12.457187816627599 H 0.0 **** 0.52
4971 H 26.17210447342563 21.36358657807147 12.433101840485964 H 0.0 **** 0.52
4972 M 25.812662548917316 20.649512932951488 12.785046403353327 M 0.0 **** -1.04
4973 O 35.92968739789849 41.274651402620606 35.48179757946108 O 0.0 **** 0.0
4974 H 35.83895495689737 42.11123839845217 35.025597162445806 H 0.0 **** 0.52
4975 H 36.36455163409489 41.4962461403413 36.30521607262069 H 0.0 **** 0.52
4976 M 35.9737409150135 41.41011205765591 35.52880536907291 M 0.0 **** -1.04
4977 O 38.63752545378932 31.500209240579178 27.167996512015012 O 0.0 **** 0.0
4978 H 39.32790740210011 30.837201945623516 27.163147459739093 H 0.0 **** 0.52
4979 H 39.0921784257182 32.318656544863664 27.367153202875485 H 0.0 **** 0.52
4980 M 38.7841041063233 31.52010741245425 27.192869544285895 M 0.0 **** -1.04
4981 O 45.12426048713223 19.630072355036656 10.672453986289241 O 0.0 **** 0.0
4982 H 44.17216228211026 19.54055452442832 10.630935757226851 H 0.0 **** 0.52
4983 H 45.447255087076655 19.098290495175778 9.945053448033306 H 0.0 **** 0.52
4984 M 45.04372715431658 19.550537773278453 10.574022381120301 M 0.0 **** -1.04
4985 O 41.62903957718147 42.63019903325744 29.239158091643738 O 0.0 **** 0.0
4986 H 41.72651636231533 41.74910363409947 29.600263303947795 H 0.0 **** 0.52
4987 H 40.70974688870656 42.68199174290443 28.977532133930197 H 0.0 **** 0.52
4988 M 41.52383701925504 42.52403832756128 29.251892701877935 M 0.0 **** -1.04
4989 O 36.78188727274668 10.294604590372053 1.7256278361636126 O 0.0 **** 0.0
4990 H 37.34572512379052 11.029491336323659 1.484263373552054 H 0.0 **** 0.52
4991 H 36.13497798858404 10.673760034741171 2.320589355385901 H 0.0 **** 0.52
4992 M 36.771253512911194 10.437215902088198 1.7708922204338147 M 0.0 **** -1.04
4993 O 15.30610030879133 18.404825229974794 11.718999271845014 O 0.0 **** 0.0
4994 H 15.024164342352293 17.626709505590572 11.238085515250344 H 0.0 **** 0.52
4995 H 16.074810931003327 18.716674341314487 11.24143944891079 H 0.0 **** 0.52
4996 M 15.368413512759119 18.345136821979892 11.59630229076031 M 0.0 **** -1.04
4997 O 10.089715129777213 25.017651445632385 49.636537445620945 O 0.0 **** 0.0
4998 H 9.927206390285816 24.875202410430003 48.7040529191265 H 0.0 **** 0.52
4999 H 9.266647010342195 24.778758229145264 50.06282079858683 H 0.0 **** 0.52
5000 M 9.963548383415098 24.968835149050424 49.57173714557216 M 0.0 **** -1.04
5001 O 33.41164887983444 4.60141885118918 3.8994582835029434 O 0.0 **** 0.0
5002 H 33.29583639212723 3.8076640276548233 3.3771850035048248 H 0.0 **** 0.52
5003 H 32.52505673096651 4.845110493571383 4.165535190358473 H 0.0 **** 0.52
5004 M 33.28332863868064 4.531004359652755 3.8666622120629204 M 0.0 **** -1.04
5005 O 5.472168084615603 30.349851665100232 9.517886675597495 O 0.0 **** 0.0
5006 H 5.347393506636507 30.746489095915262 8.655715583285854 H 0.0 **** 0.52
5007 H 5.614882633502461 29.42092845556533 9.336327093727903 H 0.0 **** 0.52
5008 M 5.474464635669889 30.28171257090496 9.384275486588074 M 0.0 **** -1.04
5009 O 35.61628188712432 30.988702250256623 36.08359489999197 O 0.0 **** 0.0
5010 H 35.64150738326585 30.725710270360164 37.003610528807975 H 0.0 **** 0.52
5011 H 36.46121825057644 31.41209180942861 35.93176663157465 H 0.0 **** 0.52
5012 M 35.727673537959866 31.00923505435991 36.18193325576321 M 0.0 **** -1.04
5013 O 10.233923281677384 30.111040719475024 20.65804604086108 O 0.0 **** 0.0
5014 H 9.927829117735456 30.95954368791604 20.9783226714607 H 0.0 **** 0.52
5015 H 11.133417672150202 30.27231035710481 20.37321246846402 H 0.0 **** 0.52
5016 M 10.309885700845172 30.240304103674895 20.66258365999084 M 0.0 **** -1.04
5017 O 12.731586100945014 11.633889919562648 41.81859787440748 O 0.0 **** 0.0
5018 H 11.996607758304094 11.524306913716238 41.215251419170706 H 0.0 **** 0.52
5019 H 13.423911852059224 12.024125198405393 41.28509042055611 H 0.0 **** 0.52
5020 M 12.726126002794313 11.669817321753179 41.673066538022475 M 0.0 **** -1.04
5021 O 15.276592902850238 45.341047607657316 16.600791001315248 O 0.0 **** 0.0
5022 H 15.706610414839552 44.49266080937533 16.708277869035804 H 0.0 **** 0.52
5023 H 14.341515440924935 45.145471163268816 16.66086870999915 H 0.0 **** 0.52
5024 M 15.211938571706416 45.20740781331424 16.622241234910373 M 0.0 **** -1.04
5025 O 43.376427324967125 11.778899758646036 5.721257412352395 O 0.0 **** 0.0
5026 H 43.52081945784039 10.886814172744549 6.036793664069501 H 0.0 **** 0.52
5027 H 43.975747325239894 12.316522125326163 6.238951250285471 H 0.0 **** 0.52
5028 M 43.47163151682749 11.733524109901646 5.827921010788106 M 0.0 **** -1.04
5029 O 3.2254726311392403 7.388845631168668 23.72750283683097 O 0.0 **** 0.0
5030 H 3.24510164781141 6.633474285225915 23.13991667311767 H 0.0 **** 0.52
5031 H 3.988750874921152 7.908674885176734 23.47568486659888 H 0.0 **** 0.52
5032 M 3.325694831991484 7.358693012226833 23.62004846411265 M 0.0 **** -1.04
5033 O 35.40196767899968 18.423652274543038 5.665430883984611 O 0.0 **** 0.0
5034 H 35.936128408009836 19.1865034355858 5.8866983806677835 H 0.0 **** 0.52
5035 H 35.82419068152148 17.694932505266916 6.120319993722371 H 0.0 **** 0.52
5036 M 35.52439679164543 18.428021797102335 5.751987284674497 M 0.0 **** -1.04
5037 O 6.665320313310587 8.455087783713088 15.351872976462632 O 0.0 **** 0.0
5038 H 7.321945914959111 7.854994205141749 15.705368135416382 H 0.0 **** 0.52
5039 H 6.568697570095552 9.128700513385244 16.025028697643705 H 0.0 **** 0.52
5040 M 6.737007751700075 8.464499420598496 15.483297185626332 M 0.0 **** -1.04
5041 O 12.651020930592189 21.7800818577331 46.918252449514505 O 0.0 **** 0.0
5042 H 12.757412722257131 21.279046881732143 47.726876552837716 H 0.0 **** 0.52
5043 H 12.19080403457142 21.185238765469204 46.32614576277371 H 0.0 **** 0.52
5044 M 12.605726577355481 21.639796385133362 46.94596879935207 M 0.0 **** -1.04
5045 O 5.063886055778774 18.735715746325933 36.78756735337693 O 0.0 **** 0.0
5046 H 4.474434639409225 18.990770292357876 37.497301085855675 H 0.0 **** 0.52
5047 H 5.609851840224572 19.507935874221587 36.63982765297405 H 0.0 **** 0.52
5048 M 5.058320291603351 18.86721998531416 36.85950925912919 M 0.0 **** -1.04
5049 O 12.789754848243382 48.872649748363095 0.2814753989326901 O 0.0 **** 0.0
5050 H 13.389186099927283 49.47486582002407 0.7222094869560143 H 0.0 **** 0.52
5051 H 12.832260574314217 49.124097649885805 -0.64112744697929 H 0.0 **** 0.52
5052 M 12.871930925026358 48.98192940149684 0.21979026203956856 M 0.0 **** -1.04
5053 O 24.871029004939665 43.79976352637646 25.399859899093308 O 0.0 **** 0.0
5054 H 24.45526089443471 42.94096064377387 25.47617205037578 H 0.0 **** 0.52
5055 H 25.158891130697945 44.0068914750032 26.288939616707165 H 0.0 **** 0.52
5056 M 24.854655687761717 43.716340715654226 25.523442123243004 M 0.0 **** -1.04
5057 O 11.639352542693821 21.98063288187644 24.426281182003265 O 0.0 **** 0.0
5058 H 10.790601651038969 22.417333966010347 24.354576961485208 H 0.0 **** 0.52
5059 H 11.50885159664763 21.131621219191562 24.00393306665427 H 0.0 **** 0.52
5060 M 11.513995890050225 21.9278516506523 24.363036329418648 M 0.0 **** -1.04
5061 O 47.990691901266906 17.741794572653387 37.91029507260402 O 0.0 **** 0.0
5062 H 48.18225919818768 18.616996261080878 38.24726891569105 H 0.0 **** 0.52
5063 H 48.42243520852791 17.713564159637013 37.056462458740526 H 0.0 **** 0.52
5064 M 48.07048384918102 17.85021691737018 37.84413111689417 M 0.0 **** -1.04
5065 O 10.373163096619123 4.66575972972948 26.840986707771805 O 0.0 **** 0.0
5066 H 10.698747830197618 5.528392744441958 26.583910181718757 H 0.0 **** 0.52
5067 H 9.486899915878297 4.829978908117791 27.163163826801746 H 0.0 **** 0.52
5068 M 10.301389919631077 4.797210369433743 26.849319936701924 M 0.0 **** -1.04
5069 O 21.333607594162842 12.31332020407696 16.764862745051552 O 0.0 **** 0.0
5070 H 21.047483673028864 12.159600975364295 17.66526914083365 H 0.0 **** 0.52
5071 H 22.06503057080546 12.925334091461863 16.84664551876747 H 0.0 **** 0.52
5072 M 21.390611214845066 12.371988116912142 16.890594708679306 M 0.0 **** -1.04
5073 O 42.516549618949384 28.081691693620666 29.82178875527775 O 0.0 **** 0.0
5074 H 43.00239697628725 27.488122100358588 30.394375216315186 H 0.0 **** 0.52
5075 H 43.038207710441604 28.122501205960614 29.020267005744937 H 0.0 **** 0.52
5076 M 42.64552252620259 28.01093170941159 29.79248215026482 M 0.0 **** -1.04
5077 O 28.81694809184332 23.618408720437156 3.3844638598239314 O 0.0 **** 0.0
5078 H 29.39762162386027 23.51885640548667 4.138875596341407 H 0.0 **** 0.52
5079 H 28.41955361655086 24.48155295860441 3.4997406643036513 H 0.0 **** 0.52
5080 M 28.840410050871306 23.71615761949494 3.495795038514224 M 0.0 **** -1.04
5081 O 22.61059114801871 0.5472228157456837 49.598796017480446 O 0.0 **** 0.0
5082 H 22.813428458055824 1.340809060463164 50.094079573339805 H 0.0 **** 0.52
5083 H 22.271467750062143 -0.06380542183552507 50.252911572551845 H 0.0 **** 0.52
5084 M 22.593144894717376 0.5705928346612017 49.745933441936714 M 0.0 **** -1.04
5085 O 49.40193221777727 12.353804167848544 24.80986895302762 O 0.0 **** 0.0
5086 H 50.096296878494684 12.342288610813114 24.15111793308369 H 0.0 **** 0.52
5087 H 49.04989348391561 11.463718635844707 24.80307620058624 H 0.0 **** 0.52
5088 M 49.44575346495049 12.238387998650616 24.724670984496292 M 0.0 **** -1.04
5089 O 15.870951117441765 35.13648652406372 30.61631083430764 O 0.0 **** 0.0
5090 H 16.573515695471897 34.57917411824962 30.28159769673192 H 0.0 **** 0.52
5091 H 15.218514043223115 34.52311740657749 30.95444374182763 H 0.0 **** 0.52
5092 M 15.877367659686954 34.98662443505547 30.61674864327597 M 0.0 **** -1.04
5093 O 46.393729605842495 40.41792678710633 42.93306752972253 O 0.0 **** 0.0
5094 H 46.27926476291397 41.3033592021178 42.58790902822952 H 0.0 **** 0.52
5095 H 45.502454084153804 40.092189066511615 43.058571704796115 H 0.0 **** 0.52
5096 M 46.26498282819689 40.489574323735724 42.904948592779554 M 0.0 **** -1.04
5097 O 19.380979362169576 22.25050902635074 28.708557539830018 O 0.0 **** 0.0
5098 H 19.240500028248622 22.549461889487176 27.810158258994793 H 0.0 **** 0.52
5099 H 19.392983864826558 23.053410047528544 29.229551824688492 H 0.0 **** 0.52
5100 M 19.36453287153831 22.391560180483978 28.660244874486324 M 0.0 **** -1.04
5101 O 8.476263359348252 22.496246082371588 22.076135290993136 O 0.0 **** 0.0
5102 H 8.164114098031654 23.031880355106427 22.805441680402023 H 0.0 **** 0.52
5103 H 7.724062940671118 22.429957448815784 21.4878919306043 H 0.0 **** 0.52
5104 M 8.34001261092547 22.55632770359728 22.094193981203897 M 0.0 **** -1.04
5105 O 10.798963595952971 36.690626751990465 47.177441464468124 O 0.0 **** 0.0
5106 H 9.890872912181862 36.77687376019077 46.88733809370779 H 0.0 **** 0.52
5107 H 10.952346569248748 37.464651691014836 47.71927991286502 H 0.0 **** 0.52
5108 M 10.702351289209505 36.80075227379453 47.209666594834204 M 0.0 **** -1.04
5109 O 28.20110967511768 10.739876720067635 23.81595218061076 O 0.0 **** 0.0
5110 H 27.423146805836463 10.595877520428473 24.354715628969533 H 0.0 **** 0.52
5111 H 28.894669898186244 10.252795254247026 24.260872179567368 H 0.0 **** 0.52
5112 M 28.190305563426648 10.659090375190502 23.94187555568444 M 0.0 **** -1.04
5113 O 8.031319563620556 12.268672047254094 27.17500875460537 O 0.0 **** 0.0
5114 H 8.50676036364483 11.862744344676704 27.899858753119876 H 0.0 **** 0.52
5115 H 8.624590640988927 12.94470914592271 26.84754599200197 H 0.0 **** 0.52
5116 M 8.168127873325034 12.303249300930277 27.225879429979454 M 0.0 **** -1.04
5117 O 1.6531339975963606 24.8513626517352 6.99427651573405 O 0.0 **** 0.0
5118 H 1.040774640728725 25.024618576360083 7.7092783832835465 H 0.0 **** 0.52
5119 H 2.4826997066071885 25.22375141797832 7.293234520376032 H 0.0 **** 0.52
5120 M 1.680939079637623 24.921212183996033 7.124076810312403 M 0.0 **** -1.04
5121 O 27.480060428336383 43.285355389732985 48.802211730361364 O 0.0 **** 0.0
5122 H 27.425390907480153 42.75981125338691 49.600362046118654 H 0.0 **** 0.52
5123 H 28.07831006258674 43.99858036028265 49.02500111308331 H 0.0 **** 0.52
5124 M 27.549645031131607 43.30938087177073 48.93290503521162 M 0.0 **** -1.04
5125 O 40.327861344406365 12.234276132422524 16.00428051189147 O 0.0 **** 0.0
5126 H 41.17923572546468 12.64242316104877 16.161778420657686 H 0.0 **** 0.52
5127 H 40.273401589842756 12.152461550419059 15.052140971630665 H 0.0 **** 0.52
5128 M 40.42987653915236 12.276051408399466 15.902556294421007 M 0.0 **** -1.04
5129 O 11.904467064597718 25.394273714543665 20.777686545401394 O 0.0 **** 0.0
5130 H 12.84888122903729 25.28435594097116 20.888271049435172 H 0.0 **** 0.52
5131 H 11.806070540267513 25.750373121362916 19.89465746863136 H 0.0 **** 0.52
5132 M 12.012768071086043 25.425788292148056 20.678804159765484 M 0.0 **** -1.04
5133 O 29.73013444724122 49.340972753158425 42.78224911663829 O 0.0 **** 0.0
5134 H 29.159240278057332 49.753799037346624 43.430232045189406 H 0.0 **** 0.52
5135 H 30.175445864086107 48.644016155402404 43.26409824181177 H 0.0 **** 0.52
5136 M 29.71405824573658 49.30460057683632 42.92688110088032 M 0.0 **** -1.04
5137 O 47.30883050274364 34.626687980606846 6.8342924213068486 O 0.0 **** 0.0
5138 H 46.98346746021383 33.98536830150181 6.202567473470857 H 0.0 **** 0.52
5139 H 47.661642647592956 35.33560661719439 6.296531110017426 H 0.0 **** 0.52
5140 M 47.312344089221995 34.635342109317975 6.68458332320219 M 0.0 **** -1.04
5141 O 10.804907222925621 48.626134257263054 25.099951866105826 O 0.0 **** 0.0
5142 H 11.469374409510126 48.667496224885426 24.412201094442025 H 0.0 **** 0.52
5143 H 10.867509284529994 47.73386606506104 25.44078590559088 H 0.0 **** 0.52
5144 M 10.89798099239258 48.51720712543524 25.055542976264267 M 0.0 **** -1.04
5145 O 44.91729667760219 41.727201402906246 2.4276869823787237 O 0.0 **** 0.0
5146 H 45.342680441103056 41.65149038769352 1.5735527386671393 H 0.0 **** 0.52
5147 H 44.88208713572483 42.66889366072814 2.5956274500199186 H 0.0 **** 0.52
5148 M 44.96724390525416 41.838057704919784 2.3398449645583668 M 0.0 **** -1.04
5149 O 15.38593395637622 32.841681145959534 2.018571164463315 O 0.0 **** 0.0
5150 H 15.409096924745683 33.16947861841863 1.1195486609129386 H 0.0 **** 0.52
5151 H 16.251296318054628 33.04825531617138 2.371705713468234 H 0.0 **** 0.52
5152 M 15.499676642060692 32.91008773471235 1.9486902908962687 M 0.0 **** -1.04
5153 O 42.41100382933974 20.78814345477008 27.13791362977948 O 0.0 **** 0.0
5154 H 43.271974437904206 20.446220428049926 27.378842562621422 H 0.0 **** 0.52
5155 H 41.934993638949535 20.02713676965294 26.80548060058052 H 0.0 **** 0.52
5156 M 42.460283383283304 20.64695413916064 27.12619982216392 M 0.0 **** -1.04
5157 O 7.1393430811994705 31.61684391632112 21.16316159245175 O 0.0 **** 0.0
5158 H 6.782507927965362 31.128444557316804 21.90502660631704 H 0.0 **** 0.52
5159 H 6.788050506220998 31.172127981409137 20.391767138265607 H 0.0 **** 0.52
5160 M 7.048693477747619 31.497393877849706 21.159381586076684 M 0.0 **** -1.04
5161 O 46.402475087022104 17.255766938436313 2.2493336951876017 O 0.0 **** 0.0
5162 H 47.308836384050345 17.119065893305862 2.5251041147034257 H 0.0 **** 0.52
5163 H 45.878648825292224 16.82235629917953 2.9231213668821328 H 0.0 **** 0.52
5164 M 46.45144458083057 17.182785584142344 2.3708892824576684 M 0.0 **** -1.04
5165 O 36.00167910237935 31.17472728052242 12.397318252221641 O 0.0 **** 0.0
5166 H 35.64968227196281 31.98261782186564 12.023632933972275 H 0.0 **** 0.52
5167 H 35.964212758336444 30.542205910843244 11.679863527589147 H 0.0 **** 0.52
5168 M 35.951822846645776 31.19717688574146 12.257638491136706 M 0.0 **** -1.04
5169 O 23.55529216696361 20.890852808024032 36.86658584712673 O 0.0 **** 0.0
5170 H 24.068114137535325 21.483001339721216 36.31649197768843 H 0.0 **** 0.52
5171 H 22.646729816954128 21.05529683647017 36.61419662037676 H 0.0 **** 0.52
5172 M 23.50463281539607 20.987706336720215 36.76385746510478 M 0.0 **** -1.04
5173 O 26.64162735642967 16.37520806785478 0.025037189002024875 O 0.0 **** 0.0
5174 H 26.500592404677796 17.321600387400732 0.051119027576662354 H 0.0 **** 0.52
5175 H 25.775179079306344 16.00819257171792 -0.15045250894939954 H 0.0 **** 0.52
5176 M 26.512656622362922 16.449376264600435 0.005910798365066267 M 0.0 **** -1.04
5177 O 43.087385077899874 33.2225767833855 28.176334399981428 O 0.0 **** 0.0
5178 H 42.167697169199535 33.07079360213544 27.958700076502065 H 0.0 **** 0.52
5179 H 43.559224920646 32.52139562360563 27.726956567675053 H 0.0 **** 0.52
5180 M 43.030054675170646 33.11338669848558 28.090948666422122 M 0.0 **** -1.04
5181 O 9.098283373693414 5.3994743028376035 7.023180713160627 O 0.0 **** 0.0
5182 H 8.55763430092399 4.6510839937307935 7.275843287972528 H 0.0 **** 0.52
5183 H 9.98935446261182 5.142851892138879 7.260593757722077 H 0.0 **** 0.52
5184 M 9.143141456222482 5.270820697820966 7.0859157500542125 M 0.0 **** -1.04
5185 O 24.89763134114017 3.9003679070357653 15.836442333966403 O 0.0 **** 0.0
5186 H 25.078512180428618 4.729024189307022 16.280107361832957 H 0.0 **** 0.52
5187 H 25.715327409060137 3.4076076243163786 15.90565150676635 H 0.0 **** 0.52
5188 M 25.025462260491267 3.943367049104918 15.902096728375097 M 0.0 **** -1.04
5189 O 9.08260395215775 16.98590992901397 11.98967844763238 O 0.0 **** 0.0
5190 H 8.93701919333924 17.186371034801553 12.914258704230463 H 0.0 **** 0.52
5191 H 8.740876822179665 17.74806712839485 11.522166802410975 H 0.0 **** 0.52
5192 M 9.020221558899324 17.109136943013496 12.048188772414498 M 0.0 **** -1.04
5193 O 25.87312480714739 19.920171178181818 30.851506014509212 O 0.0 **** 0.0
5194 H 26.266867611746903 19.555717189620083 31.644202983597438 H 0.0 **** 0.52
5195 H 25.507641083125748 19.162450049415057 30.39487907937641 H 0.0 **** 0.52
5196 M 25.876743062615915 19.776519343688307 30.89452682714702 M 0.0 **** -1.04
5197 O 23.616690839014993 36.840956216695844 31.40478513280065 O 0.0 **** 0.0
5198 H 23.945950480560168 37.62115036845681 31.851007215394763 H 0.0 **** 0.52
5199 H 23.06738481886115 37.18201774316506 30.698975047222167 H 0.0 **** 0.52
5200 M 23.588522464546735 36.98449038603808 31.371554758395956 M 0.0 **** -1.04
5201 O 13.046556361131053 28.37101615118808 31.023642256973353 O 0.0 **** 0.0
5202 H 12.441198193811928 27.86548771249334 30.4812291402386 H 0.0 **** 0.52
5203 H 13.495430907539472 28.949457425183756 30.407083485297917 H 0.0 **** 0.52
5204 M 13.026524300154826 28.380350098690336 30.875279810312918 M 0.0 **** -1.04
5205 O 41.39709550627119 20.779837508768757 4.022602080111786 O 0.0 **** 0.0
5206 H 40.79518431804846 20.23486634408412 3.515711176465216 H 0.0 **** 0.52
5207 H 42.2328940648633 20.314961481408574 3.9831163554862723 H 0.0 **** 0.52
5208 M 41.427035944671225 20.650564564052118 3.952658712608461 M 0.0 **** -1.04
5209 O 9.637374870312751 46.511442592597504 49.853048375792476 O 0.0 **** 0.0
5210 H 10.263721767090646 46.496033954116996 50.57670653635325 H 0.0 **** 0.52
5211 H 10.16322742838975 46.73543842535063 49.085237708575335 H 0.0 **** 0.52
5212 M 9.784870644896012 46.53814451479342 49.847396856338825 M 0.0 **** -1.04
5213 O 45.66655722447995 4.096838299979346 47.49919653514382 O 0.0 **** 0.0
5214 H 46.44956815372153 3.909281897264833 46.981561232551044 H 0.0 **** 0.52
5215 H 45.29220729163119 4.878767805725332 47.093393097172616 H 0.0 **** 0.52
5216 M 45.71887126681392 4.1729255100587395 47.38098444452268 M 0.0 **** -1.04
5217 O 36.32057442649368 22.96656738840028 4.633248145810207 O 0.0 **** 0.0
5218 H 36.00671221529038 23.383817083914845 3.830987670261621 H 0.0 **** 0.52
5219 H 36.413864134318125 22.042320272980728 4.402395150502528 H 0.0 **** 0.52
5220 M 36.292338714002646 22.901664842345134 4.500996650840655 M 0.0 **** -1.04
5221 O 4.925982361667207 49.17966320772104 7.3069553671476974 O 0.0 **** 0.0
5222 H 5.771164301608252 49.494950197851395 6.98681601898587 H 0.0 **** 0.52
5223 H 4.532700860131173 48.73993465407414 6.553166390415086 H 0.0 **** 0.52
5224 M 4.983831580988336 49.16373256635469 7.169479410171201 M 0.0 **** -1.04
5225 O 23.295470693662054 39.5971259253546 13.274700202785567 O 0.0 **** 0.0
5226 H 23.014460909919013 38.733455995791346 13.57691849701581 H 0.0 **** 0.52
5227 H 22.58082247849011 40.182966842196066 13.524294384203046 H 0.0 **** 0.52
5228 M 23.168013332781463 39.56156050129869 13.345339024527533 M 0.0 **** -1.04
5229 O 8.408112786562043 18.221701188984127 35.628765685580106 O 0.0 **** 0.0
5230 H 8.452929833422417 18.94558790166975 36.25343223449925 H 0.0 **** 0.52
5231 H 9.314773367414595 18.08562191188621 35.35366694839789 H 0.0 **** 0.52
5232 M 8.52991364811625 18.29694787429241 35.673514774719294 M 0.0 **** -1.04
5233 O 31.68763435225583 39.37662521445341 11.655559458323538 O 0.0 **** 0.0
5234 H 32.098613717571375 38.52408879758292 11.79876282195837 H 0.0 **** 0.52
5235 H 31.32940862386254 39.61692046332502 12.51005359846009 H 0.0 **** 0.52
5236 M 31.69438748575393 39.29825054657723 11.783276897748436 M 0.0 **** -1.04
5237 O 21.511675968882756 3.0405433558380683 21.658195877959002 O 0.0 **** 0.0
5238 H 21.713493343425398 2.5113161099023835 20.88656313805646 H 0.0 **** 0.52
5239 H 21.10139855541246 2.4280162695093512 22.268696845045227 H 0.0 **** 0.52
5240 M 21.484990474500663 2.894384977036913 21.637569305054427 M 0.0 **** -1.04
5241 O 12.40577595703951 14.311262922903706 6.83778729815085 O 0.0 **** 0.0
5242 H 12.569304446499958 15.252118824559755 6.903186742930586 H 0.0 **** 0.52
5243 H 11.995685187607101 14.080442776945546 7.671319247928373 H 0.0 **** 0.52
5244 M 12.37421242614655 14.402155993761316 6.952861692977244 M 0.0 **** -1.04
5245 O 28.398811982485576 29.43397961025209 17.33518632943067 O 0.0 **** 0.0
5246 H 29.046985597643992 30.13523575138141 17.269316535612134 H 0.0 **** 0.52
5247 H 28.8031198031869 28.69066214591982 16.88770120091891 H 0.0 **** 0.52
5248 M 28.53354246631373 29.428595347971466 17.26947070190478 M 0.0 **** -1.04
5249 O 4.1228025627295 1.5993287838639028 30.26617221919089 O 0.0 **** 0.0
5250 H 3.4874364878954336 0.8834656381025601 30.27501616748966 H 0.0 **** 0.52
5251 H 4.10727463590177 1.9228785870288985 29.365449186496484 H 0.0 **** 0.52
5252 M 4.03948009908638 1.5491073810164284 30.15200056742711 M 0.0 **** -1.04
5253 O 7.805282674321219 12.108386920878655 11.10448453504289 O 0.0 **** 0.0
5254 H 8.281593955659247 12.804901130385288 11.556396171001744 H 0.0 **** 0.52
5255 H 8.132710239068366 11.299480205952714 11.497789646326744 H 0.0 **** 0.52
5256 M 7.908171295892927 12.093999264795094 11.212682456134207 M 0.0 **** -1.04
5257 O 40.15496443392377 21.66662151306998 14.246987590476024 O 0.0 **** 0.0
5258 H 40.80620825976647 22.362120845519815 14.155388590382415 H 0.0 **** 0.52
5259 H 39.31990894352911 22.092826277509744 14.053957723877303 H 0.0 **** 0.52
5260 M 40.13143402640625 21.810213880092665 14.210551549789685 M 0.0 **** -1.04
5261 O 42.13110970317828 6.161125125207015 18.404299345590598 O 0.0 **** 0.0
5262 H 41.198637426649526 5.993534711117604 18.26778386208969 H 0.0 **** 0.52
5263 H 42.3089124001382 5.826520672478736 19.283306251154514 H 0.0 **** 0.52
5264 M 42.0345020648002 6.096838431027116 18.49934739162746 M 0.0 **** -1.04
5265 O 44.93463908526587 45.509228345847895 7.694786956876052 O 0.0 **** 0.0
5266 H 45.297220298689425 44.72832432013952 8.113060155043879 H 0.0 **** 0.52
5267 H 43.98620080785031 45.39995100826811 7.763720623231656 H 0.0 **** 0.52
5268 M 44.859641724017024 45.395274235656586 7.7571564124950525 M 0.0 **** -1.04
5269 O 33.02109517409205 38.66930618384675 19.119817194557882 O 0.0 **** 0.0
5270 H 32.944823261646384 38.79525753959873 18.174012038565795 H 0.0 **** 0.52
5271 H 32.7178726649013 37.77355724806643 19.267866072468443 H 0.0 **** 0.52
5272 M 32.97251499415059 38.57076260810325 19.017694631142433 M 0.0 **** -1.04
5273 O 12.522878027730187 44.1979116038848 17.182959359532436 O 0.0 **** 0.0
5274 H 13.03289655332945 43.41312029002364 17.383490513257506 H 0.0 **** 0.52
5275 H 12.08986194848697 43.99720354647957 16.353235093560222 H 0.0 **** 0.52
5276 M 12.53273606923075 44.07175467136289 17.102414459306363 M 0.0 **** -1.04
5277 O 49.65690117960263 32.21593407252702 39.47653553041793 O 0.0 **** 0.0
5278 H 50.23936051660975 32.23335441864889 40.23592080443629 H 0.0 **** 0.52
5279 H 49.83715129343727 33.03601439060337 39.016963097329175 H 0.0 **** 0.52
5280 M 49.7545380984285 32.323144948465604 39.51491601137752 M 0.0 **** -1.04
5281 O 40.5465022838846 2.1834958123342876 24.5586013848842 O 0.0 **** 0.0
5282 H 40.75904811732515 1.3344519795050935 24.946128088040467 H 0.0 **** 0.52
5283 H 40.5193136467221 2.786370514517694 25.301589558350578 H 0.0 **** 0.52
5284 M 40.570229858887075 2.1519833064158527 24.703321423100153 M 0.0 **** -1.04
5285 O 20.298251359491772 46.05140063994847 48.37362687510278 O 0.0 **** 0.0
5286 H 20.158535786634847 46.6107570473355 49.13771442641632 H 0.0 **** 0.52
5287 H 20.944316688498777 46.52177741377567 47.846775256561116 H 0.0 **** 0.52
5288 M 20.3630703105637 46.18321958715553 48.4039962439661 M 0.0 **** -1.04
5289 O 29.11224494167109 39.04692377064229 10.52238080177541 O 0.0 **** 0.0
5290 H 30.020798659118253 39.050187036206836 10.823622962936286 H 0.0 **** 0.52
5291 H 28.772316329159526 39.90510955173203 10.7757494701234 H 0.0 **** 0.52
5292 M 29.185035453692674 39.157200207466325 10.593377615971757 M 0.0 **** -1.04
5293 O 33.943698369969354 26.338871151343863 11.853258436970648 O 0.0 **** 0.0
5294 H 34.28166949804066 25.479191629961942 11.602353631589807 H 0.0 **** 0.52
5295 H 33.341472378693936 26.57522528632763 11.147787320009904 H 0.0 **** 0.52
5296 M 33.90987001143684 26.25907832831843 11.730829764864751 M 0.0 **** -1.04
5297 O 14.317852750465931 42.54582679952198 7.2208797951995445 O 0.0 **** 0.0
5298 H 13.614551158878633 41.95654633272856 7.4935441788498185 H 0.0 **** 0.52
5299 H 14.513672286789415 42.28548255077457 6.320822256645438 H 0.0 **** 0.52
5300 M 14.252888707081695 42.43706398678639 7.140565741572474 M 0.0 **** -1.04
5301 O 44.35872880028054 30.56933453267767 38.972704379924764 O 0.0 **** 0.0
5302 H 45.027820247463964 30.819614966116 38.33559763107487 H 0.0 **** 0.52
5303 H 44.20104102269113 31.36534865817348 39.480370760060595 H 0.0 **** 0.52
5304 M 44.42419449148509 30.703273074533097 38.95613471889153 M 0.0 **** -1.04
5305 O 48.492948740609094 27.352583711405234 32.69595399503442 O 0.0 **** 0.0
5306 H 47.77714386384389 26.906699897300022 32.243140755409954 H 0.0 **** 0.52
5307 H 48.32880050439283 27.188272742654245 33.62454770280401 H 0.0 **** 0.52
5308 M 48.380303492855994 27.274471613330185 32.75686026428446 M 0.0 **** -1.04
5309 O 9.623960967481217 49.386984117925536 5.302981209637795 O 0.0 **** 0.0
5310 H 9.654059676851588 49.56900090671416 4.363730033582293 H 0.0 **** 0.52
5311 H 10.542525821823567 49.325953639914644 5.5651661556169705 H 0.0 **** 0.52
5312 M 9.745401710569595 49.40247160370711 5.216308377946916 M 0.0 **** -1.04
5313 O 4.807492486792441 0.6012431487335448 34.381877572148994 O 0.0 **** 0.0
5314 H 5.667711678594721 0.416873233991339 34.00470579629593 H 0.0 **** 0.52
5315 H 4.965506845471765 0.6564497356138048 35.324328235910954 H 0.0 **** 0.52
5316 M 4.937838877264582 0.584708271880416 34.45424073735991 M 0.0 **** -1.04
5317 O 34.30211231512534 20.11157539878045 2.4177103839338434 O 0.0 **** 0.0
5318 H 34.34294672594914 19.437393330838912 3.0959724244226003 H 0.0 **** 0.52
5319 H 33.57894652589454 20.67840172791506 2.685978555298222 H 0.0 **** 0.52
5320 M 34.214764691346865 20.09783234821736 2.5388781677275567 M 0.0 **** -1.04
5321 O 34.47928425651614 11.869821778993938 33.670831810313544 O 0.0 **** 0.0
5322 H 34.12426628856901 11.13487221905197 33.17079036306602 H 0.0 **** 0.52
5323 H 35.300500523435915 11.538468234452402 34.03420091958905 H 0.0 **** 0.52
5324 M 34.53896354486582 11.733321603160178 33.653336365836616 M 0.0 **** -1.04
5325 O 42.782793216025006 8.297492847994095 31.109505042647335 O 0.0 **** 0.0
5326 H 42.0991335933756 7.631977898458781 31.03251415844744 H 0.0 **** 0.52
5327 H 43.12114849363461 8.398016485711127 30.21976405035639 H 0.0 **** 0.52
5328 M 42.738589445179656 8.2251671626919 30.98575121459091 M 0.0 **** -1.04
5329 O 38.779923761348314 12.179305632495229 39.396142441356446 O 0.0 **** 0.0
5330 H 37.99217501984369 11.932111885530752 39.880473151564814 H 0.0 **** 0.52
5331 H 38.512343915639214 12.934150653404565 38.871891668507146 H 0.0 **** 0.52
5332 M 38.6448285040006 12.244291058309486 39.39103251416496 M 0.0 **** -1.04
5333 O 12.57503917587387 14.012787645501083 32.00441738006339 O 0.0 **** 0.0
5334 H 11.886071683971586 13.630194207572298 32.54771687345153 H 0.0 **** 0.52
5335 H 12.458528793990723 14.958094909348105 32.09953804874582 H 0.0 **** 0.52
5336 M 12.471928068794167 14.084821935125284 32.08614301798755 M 0.0 **** -1.04
5337 O 29.80343996151393 16.522211069444364 45.089810745966574 O 0.0 **** 0.0
5338 H 30.289651794035137 16.369930742126403 44.27947908834882 H 0.0 **** 0.52
5339 H 30.432368771391708 16.95115549441876 45.67005503165953 H 0.0 **** 0.52
5340 M 29.946192235619435 16.557626906855937 45.06035664057958 M 0.0 **** -1.04
5341 O 12.63873712104727 15.176566689581874 40.18940741666628 O 0.0 **** 0.0
5342 H 13.575033689879398 15.049120247963522 40.34216140478792 H 0.0 **** 0.52
5343 H 12.5706785738426 16.06744994905212 39.84600650252635 H 0.0 **** 0.52
5344 M 12.749881801353931 15.274296061751496 40.165002410195484 M 0.0 **** -1.04
5345 O 3.6050569964537758 19.82409890393932 33.88284461124202 O 0.0 **** 0.0
5346 H 4.522484267285968 19.748156252286215 34.145119693315166 H 0.0 **** 0.52
5347 H 3.570660578932255 19.427354053851566 33.01241988269467 H 0.0 **** 0.52
5348 M 3.7180959967927976 19.763588570250697 33.80499353844112 M 0.0 **** -1.04
5349 O 29.95911929159446 17.810993692381604 2.5239038519771646 O 0.0 **** 0.0
5350 H 29.412926960132665 17.1928016254102 2.038372848325878 H 0.0 **** 0.52
5351 H 30.00925748208752 18.5820345268081 1.9589163579504194 H 0.0 **** 0.52
5352 M 29.89561747792426 17.83056045990692 2.389424019979217 M 0.0 **** -1.04
5353 O 9.594545349491547 40.20940998239748 10.10747814278501 O 0.0 **** 0.0
5354 H 10.070088255185341 40.59023615661007 10.845758744096813 H 0.0 **** 0.52
5355 H 10.178202606727659 40.3295824713719 9.358390867438061 H 0.0 **** 0.52
5356 M 9.730136013679548 40.27354341317106 10.10609489469521 M 0.0 **** -1.04
5357 O 14.932501618852507 10.632565711110972 16.06468157463958 O 0.0 **** 0.0
5358 H 15.698542001386407 10.676723114426913 15.492439801792258 H 0.0 **** 0.52
5359 H 14.70966463989909 11.547114040478409 16.238385843821064 H 0.0 **** 0.52
5360 M 15.002038527218335 10.755292217554763 16.01366426303835 M 0.0 **** -1.04
5361 O 44.49374214866656 22.209628274613426 37.84424585140152 O 0.0 **** 0.0
5362 H 43.744802337052406 22.771764499091432 38.042537584972656 H 0.0 **** 0.52
5363 H 44.79834559867896 22.50898031539886 36.98760488705774 H 0.0 **** 0.52
5364 M 44.43686200200928 22.319909540848172 37.759969171335655 M 0.0 **** -1.04
5365 O 34.83344522520577 21.70578237182795 38.09209943187523 O 0.0 **** 0.0
5366 H 35.2832217666543 22.482007889192488 38.42587145865387 H 0.0 **** 0.52
5367 H 33.98097252217485 22.029134056470156 37.800615168800235 H 0.0 **** 0.52
5368 M 34.781894977039464 21.846541748451358 38.097513097508326 M 0.0 **** -1.04
5369 O 19.867740813279326 28.43145278934765 24.95474989334349 O 0.0 **** 0.0
5370 H 20.573016518271444 27.97616171335223 24.494830850177323 H 0.0 **** 0.52
5371 H 19.12106204879845 27.835084837885038 24.8995768591447 H 0.0 **** 0.52
5372 M 19.862440989613987 28.29682696393339 24.888811987912334 M 0.0 **** -1.04
5373 O 18.839292826669087 13.382834792019679 28.942184974198526 O 0.0 **** 0.0
5374 H 17.989684627518187 13.525147414661916 28.524880783898965 H 0.0 **** 0.52
5375 H 19.12707249637878 12.530189287178928 28.615983970526 H 0.0 **** 0.52
5376 M 18.767371769350387 13.291903028834255 28.84700630585769 M 0.0 **** -1.04
5377 O 22.274978121916856 41.32430767956026 22.70445724640458 O 0.0 **** 0.0
5378 H 22.416907270834027 42.256974932830424 22.542542444086642 H 0.0 **** 0.52
5379 H 22.081843137555385 40.957606571598696 21.841637884058695 H 0.0 **** 0.52
5380 M 22.268423648459848 41.3967586967907 22.573278575428827 M 0.0 **** -1.04
5381 O 24.9528510873092 34.40674799982669 30.49834820957508 O 0.0 **** 0.0
5382 H 24.715489531317047 35.30905681318117 30.712187439903627 H 0.0 **** 0.52
5383 H 24.11850673193358 33.97760023396136 30.30879135776188 H 0.0 **** 0.52
5384 M 24.81565843968086 34.467318470280766 30.50145667538076 M 0.0 **** -1.04
5385 O 42.55007403164583 25.395437414076387 33.07583409423497 O 0.0 **** 0.0
5386 H 42.30751241889059 25.353893956068294 34.00085637376168 H 0.0 **** 0.52
5387 H 41.94227268116049 24.797155108290077 32.64124864856899 H 0.0 **** 0.52
5388 M 42.44121682005051 25.31353138003936 33.13861652659491 M 0.0 **** -1.04
5389 O 9.775687086144934 11.279299606595444 14.627198782992378 O 0.0 **** 0.0
5390 H 10.22386702674018 10.492389433820605 14.317141795009022 H 0.0 **** 0.52
5391 H 10.39407167771522 11.990079251276953 14.458021820646207 H 0.0 **** 0.52
5392 M 9.912221040136235 11.269553963674511 14.565851421512402 M 0.0 **** -1.04
5393 O 16.564341846836683 45.60609649010674 38.15451223973103 O 0.0 **** 0.0
5394 H 16.850157896745866 45.397615207315084 39.04393494901138 H 0.0 **** 0.52
5395 H 16.783749056429503 46.53105707017304 38.04254023980761 H 0.0 **** 0.52
5396 M 16.629017600351194 45.69781487112289 38.25403559835653 M 0.0 **** -1.04
5397 O 46.50778593517548 32.71021618722222 49.239051710577485 O 0.0 **** 0.0
5398 H 46.19333635512233 32.92813103596009 48.361633214109624 H 0.0 **** 0.52
5399 H 46.311878565141384 31.778703860466678 49.3397220583804 H 0.0 **** 0.52
5400 M 46.442453792575805 32.61886650100315 49.139618099745874 M 0.0 **** -1.04
5401 O 15.608633567812504 44.212382124387574 45.943795234195704 O 0.0 **** 0.0
5402 H 15.291423816711728 44.83502080868262 46.597957522303936 H 0.0 **** 0.52
5403 H 14.880273634943038 43.60410598880857 45.81840640014118 H 0.0 **** 0.52
5404 M 15.474787256092313 44.214220044751826 46.01148465276048 M 0.0 **** -1.04
5405 O 7.129916286403605 34.3501882730466 21.474680701125262 O 0.0 **** 0.0
5406 H 7.908207592158108 34.27040104301186 22.02615506165654 H 0.0 **** 0.52
5407 H 7.026664503089954 33.48489616409212 21.078655184222992 H 0.0 **** 0.52
5408 M 7.216329149820607 34.22920605918115 21.494580582890997 M 0.0 **** -1.04
5409 O 35.83451862156978 29.574108110950895 41.58950109516734 O 0.0 **** 0.0
5410 H 34.9020833899702 29.7773487674425 41.66357684514723 H 0.0 **** 0.52
5411 H 35.863874976572326 28.7640897789412 41.080347406075745 H 0.0 **** 0.52
5412 M 35.718912843252625 29.49643210691212 41.53380578564972 M 0.0 **** -1.04
5413 O 29.764044383393863 37.28751392623211 4.46935206724814 O 0.0 **** 0.0
5414 H 29.715216555061733 36.6620130263061 5.192258716953725 H 0.0 **** 0.52
5415 H 29.02548067260933 37.87908571858885 4.6135593267965245 H 0.0 **** 0.52
5416 M 29.6632483521834 37.28316962910044 4.580353520543402 M 0.0 **** -1.04
5417 O 28.68055241762775 30.59787915836031 49.140758927308525 O 0.0 **** 0.0
5418 H 28.740345123502834 31.48079631665776 49.50560070468236 H 0.0 **** 0.52
5419 H 27.8173296914494 30.566580534407727 48.72833270305248 H 0.0 **** 0.52
5420 M 28.577703890089495 30.70689651426916 49.13466745688991 M 0.0 **** -1.04
5421 O 28.336294891961842 20.78621999270232 24.856052141632595 O 0.0 **** 0.0
5422 H 29.083744575852524 21.110559597042347 25.358398592984802 H 0.0 **** 0.52
5423 H 27.67351595386391 20.58303822846346 25.51610626868086 H 0.0 **** 0.52
5424 M 28.347133791984984 20.801729395890465 25.004854452532104 M 0.0 **** -1.04
5425 O 40.14561430242088 4.053466676975518 26.39085277525505 O 0.0 **** 0.0
5426 H 39.40093017682131 4.142883557245433 26.98556244286855 H 0.0 **** 0.52
5427 H 40.3292856144055 4.946802296476349 26.10025901055923 H 0.0 **** 0.52
5428 M 40.07379691268037 4.179271848475672 26.429783202913644 M 0.0 **** -1.04
5429 O 39.9764168823834 19.716409887392317 1.9453778804524404 O 0.0 **** 0.0
5430 H 40.36410118883109 20.387960201959444 1.3841734180666592 H 0.0 **** 0.52
5431 H 39.07532848397017 20.00888830880612 2.082216358641574 H 0.0 **** 0.52
5432 M 39.91069479381664 19.839816963785637 1.891053529084985 M 0.0 **** -1.04
5433 O 4.88011297618341 38.8576512960144 34.67962128132678 O 0.0 **** 0.0
5434 H 4.066923398281139 38.420479008085294 34.9322717672799 H 0.0 **** 0.52
5435 H 4.685895261207024 39.7914007114004 34.760983036716176 H 0.0 **** 0.52
5436 M 4.751152505319863 38.921219423733554 34.72237951077936 M 0.0 **** -1.04
5437 O 44.406470621799734 47.04051643305406 38.24181501403254 O 0.0 **** 0.0
5438 H 44.81675624264909 47.48522003047616 37.500105897745726 H 0.0 **** 0.52
5439 H 43.8716644044373 46.353613447976784 37.84385023432046 H 0.0 **** 0.52
5440 M 44.390530069581764 47.009511510552734 38.09592243718344 M 0.0 **** -1.04
5441 O 23.46069965124456 31.47392137116857 36.13082564770762 O 0.0 **** 0.0
5442 H 23.455088536557668 32.00687741174569 36.92590727836445 H 0.0 **** 0.52
5443 H 22.76045614236677 31.84074152139287 35.5910753927484 H 0.0 **** 0.52
5444 M 23.370340902397004 31.589104279793585 36.16351136864774 M 0.0 **** -1.04
5445 O 20.270765046292812 28.560401114231723 27.75863337040468 O 0.0 **** 0.0
5446 H 19.912511196602193 28.494190288741137 26.873478505884464 H 0.0 **** 0.52
5447 H 19.77788353684167 29.273660419377222 28.164290505227427 H 0.0 **** 0.52
5448 M 20.161809548427453 28.643231296867143 27.697252091267657 M 0.0 **** -1.04
5449 O 15.120303257139172 35.891892412513435 34.525278237490326 O 0.0 **** 0.0
5450 H 15.07028447103005 36.42245542512483 33.73014929730591 H 0.0 **** 0.52
5451 H 14.246316322703002 35.95406377580605 34.91064903584578 H 0.0 **** 0.52
5452 M 15.002019206885018 35.96776968186978 34.472824084790126 M 0.0 **** -1.04
5453 O 2.2080931987656665 13.781289635287322 46.363011834587965 O 0.0 **** 0.0
5454 H 2.221911171574738 13.818488089649357 47.319387791806584 H 0.0 **** 0.52
5455 H 1.3148547499878516 14.030669169736157 46.126022123563615 H 0.0 **** 0.52
5456 M 2.0955162163872916 13.817975643386866 46.45510246979755 M 0.0 **** -1.04
5457 O 3.963817385086685 15.106100392690776 25.026298674465313 O 0.0 **** 0.0
5458 H 3.16220555328168 15.040224140424424 24.507349694754772 H 0.0 **** 0.52
5459 H 3.98076057705223 16.014526411705205 25.327469631812914 H 0.0 **** 0.52
5460 M 3.86336951852838 15.213957502831118 24.9984206326033 M 0.0 **** -1.04
5461 O 17.73971199736217 25.688970781077042 0.9881343989195521 O 0.0 **** 0.0
5462 H 18.21219744778402 25.801063457282048 1.813010289961423 H 0.0 **** 0.52
5463 H 16.84421451055941 25.476841937969304 1.2514100610552084 H 0.0 **** 0.52
5464 M 17.68556101300858 25.676165355518688 1.1274316609558648 M 0.0 **** -1.04
5465 O 36.642334278924054 3.1675052988047785 10.227893540824525 O 0.0 **** 0.0
5466 H 36.712443429023466 4.121032979154007 10.182069431589674 H 0.0 **** 0.52
5467 H 37.548833612415585 2.8601479349826358 10.232212093907172 H 0.0 **** 0.52
5468 M 36.7673529383643 3.2502236549348993 10.22258104349315 M 0.0 **** -1.04
5469 O 20.093366553919424 21.75640208694834 15.2958800143188 O 0.0 **** 0.0
5470 H 19.519984291355595 21.53192917479484 16.02873260125306 H 0.0 **** 0.52
5471 H 20.516196749997412 20.930602185482257 15.060300539801185 H 0.0 **** 0.52
5472 M 20.074094167601462 21.62195431029393 15.35953706215573 M 0.0 **** -1.04
5473 O 26.335897860416754 20.752021761846457 22.90690724259533 O 0.0 **** 0.0
5474 H 26.971049597160214 20.705796042218125 23.621521272369854 H 0.0 **** 0.52
5475 H 25.4874767175707 20.824080281993037 23.34419177176491 H 0.0 **** 0.52
5476 M 26.30859634062961 20.755328160899513 23.05436487882211 M 0.0 **** -1.04
5477 O 16.27056311990779 47.826867071938445 20.024646962585155 O 0.0 **** 0.0
5478 H 16.479804240663327 46.893174070208225 19.998853385993364 H 0.0 **** 0.52
5479 H 15.313906701973707 47.85832196779091 20.031478814814708 H 0.0 **** 0.52
5480 M 16.17488420213259 47.711369525017645 20.022219564053607 M 0.0 **** -1.04
5481 O 18.5140104563015 26.59892652123178 16.627968157538618 O 0.0 **** 0.0
5482 H 18.40096850641167 27.103829681089685 15.822658530012191 H 0.0 **** 0.52
5483 H 17.694016014674133 26.11470117615088 16.724731807566172 H 0.0 **** 0.52
5484 M 18.39457021710939 26.60157425563244 16.53726471611394 M 0.0 **** -1.04
5485 O 41.66613658873637 45.50052472803774 1.474442310630515 O 0.0 **** 0.0
5486 H 41.721112893495636 44.5453767961111 1.4444580365964725 H 0.0 **** 0.52
5487 H 42.575906027160734 45.791428703728464 1.5370825517493145 H 0.0 **** 0.52
5488 M 41.7896361091322 45.415493540114426 1.4786224922475313 M 0.0 **** -1.04
5489 O 41.377303533122756 46.109078640539465 48.66960888661671 O 0.0 **** 0.0
5490 H 41.563971439024016 45.92753484268285 49.59070849078101 H 0.0 **** 0.52
5491 H 40.613293977722606 45.568629748160106 48.46852670135512 H 0.0 **** 0.52
5492 M 41.30339659763652 46.01665464660805 48.76178027531628 M 0.0 **** -1.04
5493 O 26.81868568758752 32.99719006388771 20.198302164665733 O 0.0 **** 0.0
5494 H 26.114421252629928 32.453349075784196 20.551115423825095 H 0.0 **** 0.52
5495 H 26.43134710849839 33.4262073695156 19.43532109382177 H 0.0 **** 0.52
5496 M 26.678946553388364 32.98249118341967 20.145795784669957 M 0.0 **** -1.04
5497 O 37.71985878858552 25.277446704497407 32.69587625764475 O 0.0 **** 0.0
5498 H 38.227891789765664 26.086781742389363 32.75162410105047 H 0.0 **** 0.52
5499 H 37.40308399921669 25.254654220936274 31.79290216819339 H 0.0 **** 0.52
5500 M 37.744342741722406 25.378133439788556 32.587420751573354 M 0.0 **** -1.04
5501 O 49.232485873921036 9.963894496615366 11.666459348388283 O 0.0 **** 0.0
5502 H 48.40496674433269 9.57019388223445 11.389979911416441 H 0.0 **** 0.52
5503 H 49.82065549528805 9.833457836142083 10.922636678065984 H 0.0 **** 0.52
5504 M 49.20184576134877 9.896797873481788 11.535847972284785 M 0.0 **** -1.04
5505 O 25.10958043952193 19.029439083315644 48.6753934936018 O 0.0 **** 0.0
5506 H 24.512299229452232 19.716032282837585 48.97216539700357 H 0.0 **** 0.52
5507 H 25.900832296026387 19.498020863896908 48.40972343450151 H 0.0 **** 0.52
5508 M 25.13441100745544 19.17731564140188 48.679375554709196 M 0.0 **** -1.04
5509 O 22.835275973185176 25.975210733291643 14.34108390512364 O 0.0 **** 0.0
5510 H 22.649364892630135 26.58778479447889 13.62945256980904 H 0.0 **** 0.52
5511 H 22.748486638951583 26.49906332487162 15.137496879536691 H 0.0 **** 0.52
5512 M 22.800366809627164 26.120687289068126 14.35193634287153 M 0.0 **** -1.04
5513 O 0.9029932673868402 34.81765334532766 10.789376640131806 O 0.0 **** 0.0
5514 H 1.1561205267317973 34.92237546552786 11.706539328495204 H 0.0 **** 0.52
5515 H 0.5509359616473262 33.929060212464044 10.737534187135005 H 0.0 **** 0.52
5516 M 0.8903289449133212 34.717307622622315 10.900147570736458 M 0.0 **** -1.04
5517 O 5.865516299409954 8.703625373463423 22.851272807524136 O 0.0 **** 0.0
5518 H 5.706628587525472 9.22763197205373 23.63638518188568 H 0.0 **** 0.52
5519 H 5.3705739170578894 9.147222960015837 22.162446641974928 H 0.0 **** 0.52
5520 M 5.7818181148132695 8.827490760207347 22.86359914063617 M 0.0 **** -1.04
5521 O 40.84720660095849 16.925272810469195 0.5385580493439794 O 0.0 **** 0.0
5522 H 41.14531764288049 17.443256458653124 1.286255212543335 H 0.0 **** 0.52
5523 H 41.28537697489643 16.080541918437262 0.6418286110550263 H 0.0 **** 0.52
5524 M 40.941459822793206 16.88344479317972 0.647492392263975 M 0.0 **** -1.04
5525 O 34.33910927435256 26.427179517165687 46.91775606322343 O 0.0 **** 0.0
5526 H 34.42898068387423 27.20591415444268 47.46704983306923 H 0.0 **** 0.52
5527 H 34.92221351469231 26.5881557488545 46.175930571319284 H 0.0 **** 0.52
5528 M 34.42525862185322 26.54747420816337 46.89310939570068 M 0.0 **** -1.04
5529 O 25.185600252273453 49.47377437884248 7.98250628102754 O 0.0 **** 0.0
5530 H 25.396618801907707 50.406498897413115 7.9409709127373365 H 0.0 **** 0.52
5531 H 24.413528087724835 49.37733232439692 7.4249838956526615 H 0.0 **** 0.52
5532 M 25.11377843441786 49.58082939130454 7.90581930913088 M 0.0 **** -1.04
5533 O 26.059267484036166 36.80106558142703 41.10008877682628 O 0.0 **** 0.0
5534 H 26.275368573772713 36.88465623430048 40.17135738183534 H 0.0 **** 0.52
5535 H 25.928139300947937 37.70124085679174 41.397943312207225 H 0.0 **** 0.52
5536 M 26.07014531094262 36.92700026060082 41.01932879998633 M 0.0 **** -1.04
5537 O 23.156098336215365 48.33858598934105 15.156903220021407 O 0.0 **** 0.0
5538 H 23.97081244045252 48.3786382107538 14.65603906404502 H 0.0 **** 0.52
5539 H 23.32305142095791 48.8774346638723 15.930206327988678 H 0.0 **** 0.52
5540 M 23.281763647107354 48.412691879210854 15.19177894134759 M 0.0 **** -1.04
5541 O 27.270194624730937 2.3904392749128363 31.4047455071306 O 0.0 **** 0.0
5542 H 27.966406395026716 1.9151041392938808 30.951341801355795 H 0.0 **** 0.52
5543 H 27.076910757333746 1.8559564430621265 32.17493920598656 H 0.0 **** 0.52
5544 M 27.334576285216496 2.2611698120915307 31.445298704994983 M 0.0 **** -1.04
5545 O 14.066154455006693 2.7835630765619404 15.402527290897382 O 0.0 **** 0.0
5546 H 13.989342447646298 2.7391655863439146 16.35560576047044 H 0.0 **** 0.52
5547 H 13.960934293302167 3.7123365145719935 15.196285130091283 H 0.0 **** 0.52
5548 M 14.042852319668132 2.8967738420907336 15.498131398356477 M 0.0 **** -1.04
5549 O 20.41990280512449 14.428639088469524 47.00734812901932 O 0.0 **** 0.0
5550 H 19.713286971674176 15.065399160840514 47.11439305489517 H 0.0 **** 0.52
5551 H 20.23168332811775 13.999306067132835 46.17279711497551 H 0.0 **** 0.52
5552 M 20.305352654804572 14.455192308247035 46.91421820088063 M 0.0 **** -1.04
5553 O 20.866547222962005 16.73519131945791 17.90150863015854 O 0.0 **** 0.0
5554 H 20.545974100432193 17.609576963171747 17.680351635143193 H 0.0 **** 0.52
5555 H 20.915443972153643 16.732184009510007 18.857452263380157 H 0.0 **** 0.52
5556 M 20.83176965277543 16.846738544529913 17.995570643025818 M 0.0 **** -1.04
5557 O 7.931703401449714 29.866211626267642 37.341779882675795 O 0.0 **** 0.0
5558 H 8.167590090933272 30.793037494484153 37.30202930170522 H 0.0 **** 0.52
5559 H 8.699316703434597 29.408301328375643 36.999263748250534 H 0.0 **** 0.52
5560 M 8.060163431767686 29.92623895582318 37.29284505644596 M 0.0 **** -1.04
5561 O 7.736962355153416 20.312441172231644 8.116505005837281 O 0.0 **** 0.0
5562 H 8.428175146509215 20.772454976104044 8.592781703301739 H 0.0 **** 0.52
5563 H 8.028043362578655 19.400899951508805 8.092158666212645 H 0.0 **** 0.52
5564 M 7.862708345021838 20.25464037232426 8.174357405157192 M 0.0 **** -1.04
5565 O 3.437921978362766 27.366316460969326 33.36578931549702 O 0.0 **** 0.0
5566 H 2.987852415583461 26.582644373881028 33.050314236441416 H 0.0 **** 0.52
5567 H 3.4464744309903423 27.957551897143027 32.61306357013464 H 0.0 **** 0.52
5568 M 3.381402112578712 27.341682751647003 33.229046211115865 M 0.0 **** -1.04
5569 O 7.121591938643526 35.41518201269155 32.930767635372376 O 0.0 **** 0.0
5570 H 6.675053701765123 35.05074908456271 32.16655511765518 H 0.0 **** 0.52
5571 H 7.348288663251488 36.308660074911394 32.67282373970204 H 0.0 **** 0.52
5572 M 7.0934495150068315 35.482906570923625 32.7999188699134 M 0.0 **** -1.04
5573 O 44.2537931637371 30.237345801154753 6.035095835087129 O 0.0 **** 0.0
5574 H 44.44364731669437 30.029837733982983 6.950041279124568 H 0.0 **** 0.52
5575 H 44.87546701888746 30.93020388524637 5.8121631674254655 H 0.0 **** 0.52
5576 M 44.357679233985465 30.29947678138784 6.123682576993795 M 0.0 **** -1.04
5577 O 6.998824088270943 48.71339100752976 4.361919588792936 O 0.0 **** 0.0
5578 H 7.908633723078692 48.64631621382847 4.651705505495616 H 0.0 **** 0.52
5579 H 6.9909971150460715 48.300750638822386 3.498267476242702 H 0.0 **** 0.52
5580 M 7.114288867633778 48.65198149333802 4.28845707890229 M 0.0 **** -1.04
5581 O 49.525851140482786 9.393238768856534 0.4929521916677686 O 0.0 **** 0.0
5582 H 48.94176845754783 9.323587320239639 -0.2621809063533931 H 0.0 **** 0.52
5583 H 48.979162232256584 9.15573787759223 1.2419206161110523 H 0.0 **** 0.52
5584 M 49.38109830205637 9.353919260345663 0.4921623689288026 M 0.0 **** -1.04
5585 O 16.22408273396931 12.698496805922588 12.296800318990911 O 0.0 **** 0.0
5586 H 15.715911212254994 13.129459861893437 11.609587684425762 H 0.0 **** 0.52
5587 H 15.627343925717014 12.653042981676144 13.043838747132433 H 0.0 **** 0.52
5588 M 16.082639560303008 12.74784701120656 12.30445917527706 M 0.0 **** -1.04
5589 O 42.70409642343893 45.74790880018263 34.43588642138044 O 0.0 **** 0.0
5590 H 41.875020049282696 46.220105867277525 34.512641567455255 H 0.0 **** 0.52
5591 H 42.468089187737505 44.91264212468857 34.032327079266175 H 0.0 **** 0.52
5592 M 42.56775259253913 45.70143071651778 34.394051808493096 M 0.0 **** -1.04
5593 O 22.69592839510807 10.602600323226854 18.472398172031916 O 0.0 **** 0.0
5594 H 22.11319566031826 10.276357844353708 17.78667459224384 H 0.0 **** 0.52
5595 H 22.108188619222922 10.877029693303045 19.17630042681118 H 0.0 **** 0.52
5596 M 22.546093232163173 10.595967151307063 18.474725579294073 M 0.0 **** -1.04
5597 O 30.2564666104917 46.78255515128438 33.96525850218255 O 0.0 **** 0.0
5598 H 29.380497554331505 47.16580478017128 34.010266260189866 H 0.0 **** 0.52
5599 H 30.237481337692373 46.06535429851767 34.59889161155926 H 0.0 **** 0.52
5600 M 30.141901214578482 46.7398057786104 34.05213292401216 M 0.0 **** -1.04
5601 O 23.43428088513835 21.120790697241855 48.74402242967811 O 0.0 **** 0.0
5602 H 23.66602324725521 20.9768174097638 47.82652831671487 H 0.0 **** 0.52
5603 H 23.617887290904463 22.047957509057426 48.89528230269916 H 0.0 **** 0.52
5604 M 23.487450756436203 21.221049260683124 48.64593499084998 M 0.0 **** -1.04
5605 O 14.288668658724825 19.70960628754088 39.37281113554199 O 0.0 **** 0.0
5606 H 14.639692704689914 19.863728894506664 38.49573695751306 H 0.0 **** 0.52
5607 H 15.049264648116289 19.45240476906767 39.893934866136206 H 0.0 **** 0.52
5608 M 14.430970039892165 19.6964110052338 39.327245033254236 M 0.0 **** -1.04
5609 O 16.186870851332447 30.315762779839154 43.28687077873729 O 0.0 **** 0.0
5610 H 15.887549926564287 29.456034291307798 42.99106274669958 H 0.0 **** 0.52
5611 H 16.241185782742562 30.23637363925208 44.239223507014614 H 0.0 **** 0.52
5612 M 16.155507535622977 30.19554350329676 43.370916281159154 M 0.0 **** -1.04
5613 O 22.066858553192585 40.042775852657364 28.836596901901526 O 0.0 **** 0.0
5614 H 21.789822228123445 39.84471058604203 29.73116395104862 H 0.0 **** 0.52
5615 H 21.24938889001252 40.15867921350829 28.352305737643178 H 0.0 **** 0.52
5616 M 21.926748451777108 40.032258014111044 28.889117964749506 M 0.0 **** -1.04
5617 O 16.426579692023182 28.868009392600314 27.339951510756862 O 0.0 **** 0.0
5618 H 17.011195279002127 29.624373570606707 27.291325581604504 H 0.0 **** 0.52
5619 H 16.115102453229017 28.7473764385129 26.442924291505804 H 0.0 **** 0.52
5620 M 16.461544564262923 28.9493906204505 27.21889560403252 M 0.0 **** -1.04
5621 O 2.718930298116042 17.225715706578555 40.20500082043321 O 0.0 **** 0.0
5622 H 3.105002246565433 17.76700198017133 39.51639010561802 H 0.0 **** 0.52
5623 H 1.8953530537067322 16.912739900217872 39.83083977608094 H 0.0 **** 0.52
5624 M 2.662923807652143 17.254941943187227 40.06895321599784 M 0.0 **** -1.04
5625 O 18.05001721773517 28.285745900131364 12.187581201191513 O 0.0 **** 0.0
5626 H 18.154172402177885 29.237080931041568 12.169081556318886 H 0.0 **** 0.52
5627 H 18.9448612557641 27.946774777659957 12.211681794113346 H 0.0 **** 0.52
5628 M 18.177901886107108 28.364135529680084 12.188298248333474 M 0.0 **** -1.04
5629 O 23.297019599096313 23.524217968060828 0.1219157258654078 O 0.0 **** 0.0
5630 H 22.917307837437104 23.434188179577685 0.9959541617174307 H 0.0 **** 0.52
5631 H 22.607426137066092 23.937024793848515 -0.39796960096118283 H 0.0 **** 0.52
5632 M 23.160135571771054 23.565537197802605 0.16725179630327522 M 0.0 **** -1.04
5633 O 40.79886891573969 38.643813764291245 23.523815448568666 O 0.0 **** 0.0
5634 H 40.45541712493399 38.88469896740039 24.384190353558658 H 0.0 **** 0.52
5635 H 40.84817534422791 39.4711068989947 23.044877291408078 H 0.0 **** 0.52
5636 M 40.7612143674033 38.780553662026506 23.57264471263141 M 0.0 **** -1.04
5637 O 41.90944911144247 3.3873729995365665 1.664439629539412 O 0.0 **** 0.0
5638 H 42.51953631865583 4.1183624579006874 1.7628072662721896 H 0.0 **** 0.52
5639 H 42.150769107829774 2.777851919362064 2.361919045548108 H 0.0 **** 0.52
5640 M 42.018440400022676 3.4029227185511104 1.7663178082294586 M 0.0 **** -1.04
5641 O 47.48899644764909 26.801719775593135 35.249617746062555 O 0.0 **** 0.0
5642 H 48.059753052318115 26.602374876682976 35.99172811129271 H 0.0 **** 0.52
5643 H 47.24921215121691 25.945759769761253 34.89456171833364 H 0.0 **** 0.52
5644 M 47.53136528548372 26.66662788852186 35.29916508565875 M 0.0 **** -1.04
5645 O 8.031754576339104 46.36052199911556 22.524253349836684 O 0.0 **** 0.0
5646 H 8.825456984275208 45.85205015868131 22.69075257767095 H 0.0 **** 0.52
5647 H 8.183234411428632 47.19442235812489 22.969105282426543 H 0.0 **** 0.52
5648 M 8.152749734941679 46.4021812900274 22.602513638236832 M 0.0 **** -1.04
5649 O 1.5837172012653014 20.0810076630772 9.16989401883287 O 0.0 **** 0.0
5650 H 1.6715533412860353 21.026723182628842 9.050997908337436 H 0.0 **** 0.52
5651 H 0.7480252423956628 19.972801128315183 9.623918910228612 H 0.0 **** 0.52
5652 M 1.4879830402474283 20.18821911771704 9.212794819830087 M 0.0 **** -1.04
5653 O 13.961733577599654 43.026066372218295 14.260550350861081 O 0.0 **** 0.0
5654 H 14.757590015329662 42.929362006173356 14.783512113918206 H 0.0 **** 0.52
5655 H 14.271360753759177 43.053939361743005 13.355242352910835 H 0.0 **** 0.52
5656 M 14.103249635701099 43.01725523223754 14.211605540097835 M 0.0 **** -1.04
5657 O 48.10395969868443 37.65469315374661 24.94789188122887 O 0.0 **** 0.0
5658 H 49.02234259450401 37.39507200566811 24.874412756812347 H 0.0 **** 0.52
5659 H 47.86929606153663 37.95766658384324 24.070755477995817 H 0.0 **** 0.52
5660 M 48.19148417058437 37.66024325547816 24.826201114498616 M 0.0 **** -1.04
5661 O 38.950519947853934 0.49974495140288866 49.030390437219616 O 0.0 **** 0.0
5662 H 39.64275024782295 0.3453307398689418 48.387582819369385 H 0.0 **** 0.52
5663 H 38.31108110521668 -0.1932173924113414 48.865615607368845 H 0.0 **** 0.52
5664 M 38.957277963263785 0.3912699614556061 48.92701006679255 M 0.0 **** -1.04
5665 O 1.092111690338342 10.274949070808319 9.10782911340856 O 0.0 **** 0.0
5666 H 1.743003873716603 10.000925971366925 8.461702072428707 H 0.0 **** 0.52
5667 H 1.0399836834565548 11.225471297318649 9.007729507069984 H 0.0 **** 0.52
5668 M 1.1687611893324714 10.361549171601226 9.012302946922093 M 0.0 **** -1.04
5669 O 38.56820882436242 3.360122151351078 49.36572383302835 O 0.0 **** 0.0
5670 H 38.83854958916362 2.4425546972287435 49.400570704452576 H 0.0 **** 0.52
5671 H 38.35559528027361 3.5822598295966515 50.272189098072495 H 0.0 **** 0.52
5672 M 38.5755985884466 3.2710983694975937 49.48622403770984 M 0.0 **** -1.04
5673 O 45.42910899552112 31.858785349698024 10.293315708774106 O 0.0 **** 0.0
5674 H 46.17015459987896 31.43003769460375 10.721398655682565 H 0.0 **** 0.52
5675 H 45.18488708226464 31.264253270112615 9.584009053592485 H 0.0 **** 0.52
5676 M 45.49270900154208 31.727792126363294 10.257315697100445 M 0.0 **** -1.04
5677 O 18.71014217732629 20.446556974629406 32.75072230981823 O 0.0 **** 0.0
5678 H 18.25868896173153 19.674387017653583 33.091565343770675 H 0.0 **** 0.52
5679 H 18.375496179664967 20.54630923086373 31.859492669632147 H 0.0 **** 0.52
5680 M 18.609511336664077 20.360478901208367 32.68026519856796 M 0.0 **** -1.04
5681 O 49.182392250274454 16.855359147037234 25.49303250153462 O 0.0 **** 0.0
5682 H 49.90755053834654 17.47810485780817 25.442417202682037 H 0.0 **** 0.52
5683 H 48.54544111958565 17.275170182837044 26.071201919259323 H 0.0 **** 0.52
5684 M 49.193684220388796 16.988819022585993 25.56056585999861 M 0.0 **** -1.04
5685 O 11.442551230306066 17.218742518689837 10.156865072972293 O 0.0 **** 0.0
5686 H 10.872697701230752 17.206231290682297 10.925850189615426 H 0.0 **** 0.52
5687 H 11.686584682760742 18.138570663249453 10.053942089127307 H 0.0 **** 0.52
5688 M 11.400841766736562 17.33489066430886 10.242129235901661 M 0.0 **** -1.04
5689 O 19.983846345698268 4.802648909597759 33.43287312830131 O 0.0 **** 0.0
5690 H 20.649813652935574 4.746414756516985 34.11811384092951 H 0.0 **** 0.52
5691 H 19.21396344299707 5.160206273309657 33.87520808937447 H 0.0 **** 0.52
5692 M 19.970544308354082 4.841222109829459 33.5772172936956 M 0.0 **** -1.04
5693 O 11.726186367144951 13.362180362775778 29.421872701613932 O 0.0 **** 0.0
5694 H 12.296116552437914 12.691090138609157 29.04631137486472 H 0.0 **** 0.52
5695 H 11.948301482828818 13.372094725268337 30.35289104017113 H 0.0 **** 0.52
5696 M 11.827578206258202 13.277542223754919 29.49297854124269 M 0.0 **** -1.04
5697 O 31.31129316404791 24.76073679607761 0.24455939989205205 O 0.0 **** 0.0
5698 H 32.25660458259995 24.827084799725494 0.10960667050212047 H 0.0 **** 0.52
5699 H 31.208199686733124 24.69879862679892 1.194172069078952 H 0.0 **** 0.52
5700 M 31.419107333564742 24.761301708519756 0.34884593299362526 M 0.0 **** -1.04
5701 O 48.99902670416119 19.85592636854564 10.366422690283578 O 0.0 **** 0.0
5702 H 49.11962181350142 19.28911013027913 11.128265442766763 H 0.0 **** 0.52
5703 H 48.49161569801572 19.326441466457847 9.751273457743965 H 0.0 **** 0.52
5704 M 48.949509673677824 19.7155863115975 10.385201010307377 M 0.0 **** -1.04
5705 O 36.08664726624601 16.202105888586292 36.496009437174656 O 0.0 **** 0.0
5706 H 35.911792306008635 16.577774632180287 35.633149026078996 H 0.0 **** 0.52
5707 H 36.88346333467642 16.6420215440309 36.79229583374921 H 0.0 **** 0.52
5708 M 36.1662655150499 16.306510896942648 36.42348025438925 M 0.0 **** -1.04
5709 O 15.27210964455094 32.95743739130667 16.38311288940376 O 0.0 **** 0.0
5710 H 14.65607102838896 32.73661635991045 15.684569752163428 H 0.0 **** 0.52
5711 H 15.32504047980878 33.91296404894205 16.36322896430611 H 0.0 **** 0.52
5712 M 15.200024945739063 33.05148944824205 16.29114558168299 M 0.0 **** -1.04
5713 O 38.74079677134651 28.792935805370817 24.55106849439382 O 0.0 **** 0.0
5714 H 38.1361186531274 28.20540849556843 25.00428471163341 H 0.0 **** 0.52
5715 H 38.27438162798116 29.627471301435726 24.50376921324956 H 0.0 **** 0.52
5716 M 38.6036831820783 28.824556368124135 24.603030649835482 M 0.0 **** -1.04
5717 O 3.385229507476253 21.34181899295851 41.33931287635352 O 0.0 **** 0.0
5718 H 2.94530825412216 21.94512851900731 41.93824123692198 H 0.0 **** 0.52
5719 H 4.261311620800992 21.23269637960224 41.7091791362528 H 0.0 **** 0.52
5720 M 3.441063618392031 21.405080831971375 41.46333087544218 M 0.0 **** -1.04
5721 O 30.160322130978212 4.381906835843589 20.971516760352042 O 0.0 **** 0.0
5722 H 30.176189334101476 5.330883408494262 20.847337149500856 H 0.0 **** 0.52
5723 H 30.773418866455003 4.044152207412964 20.318628645481418 H 0.0 **** 0.52
5724 M 30.240838103914346 4.460150561426496 20.87204261350949 M 0.0 **** -1.04
5725 O 39.529543249015276 44.7292772945451 4.127031956991559 O 0.0 **** 0.0
5726 H 38.867700205853076 44.13754813384891 3.7691906343879396 H 0.0 **** 0.52
5727 H 39.12543614486114 45.59589061563339 4.0833601481598265 H 0.0 **** 0.52
5728 M 39.39308800532637 44.764466129262765 4.075632840092375 M 0.0 **** -1.04
5729 O 8.087983538870764 0.6364649611545304 9.30976213723254 O 0.0 **** 0.0
5730 H 8.033081869086155 0.014798234440348113 8.583990695683653 H 0.0 **** 0.52
5731 H 7.221618744354038 1.0419729691289357 9.344473110544072 H 0.0 **** 0.52
5732 M 7.970049741167239 0.608793349395715 9.221297880162751 M 0.0 **** -1.04
5733 O 28.676887618510918 36.798511149181785 29.987175255613586 O 0.0 **** 0.0
5734 H 28.83950287948521 37.33495146720552 30.763072782854096 H 0.0 **** 0.52
5735 H 27.753305528559167 36.945417917058016 29.783107519881998 H 0.0 **** 0.52
5736 M 28.57947444898595 36.885988537797076 30.060376263763423 M 0.0 **** -1.04
5737 O 22.273351719764293 1.2307436912219638 19.504067816674624 O 0.0 **** 0.0
5738 H 22.727361403600405 0.4700745103974774 19.14145725489215 H 0.0 **** 0.52
5739 H 22.45924199190398 1.9380713845974138 18.88652400679927 H 0.0 **** 0.52
5740 M 22.355266757085193 1.2239149743995381 19.37859566483104 M 0.0 **** -1.04
5741 O 3.9786854134025873 2.7083200380821344 32.811233619494985 O 0.0 **** 0.0
5742 H 4.003612644666809 2.7315708882536587 31.854642231558962 H 0.0 **** 0.52
5743 H 3.9875949520958685 1.7762532804161915 33.028952430420745 H 0.0 **** 0.52
5744 M 3.983016699080622 2.591980150718519 32.71664827196371 M 0.0 **** -1.04
5745 O 37.26951173315022 26.88371098964873 26.096343876057063 O 0.0 **** 0.0
5746 H 37.601935695242034 25.988408206993615 26.160802199179304 H 0.0 **** 0.52
5747 H 37.19492472041024 27.177956155407195 27.004135448851635 H 0.0 **** 0.52
5748 M 37.302517800264404 26.80676882038866 26.22080414205879 M 0.0 **** -1.04
5749 O 13.972704529248059 33.90986016177258 4.340888721219571 O 0.0 **** 0.0
5750 H 13.152508946781278 34.26563686267736 3.9989362727976356 H 0.0 **** 0.52
5751 H 14.42319993671976 33.562729230321445 3.5709644609827293 H 0.0 **** 0.52
5752 M 13.925378723402863 33.91096663972771 4.198554737274591 M 0.0 **** -1.04
5753 O 14.52550802370766 46.84492898435233 25.17351149641435 O 0.0 **** 0.0
5754 H 14.020622829509145 46.49910405469509 25.90952979900834 H 0.0 **** 0.52
5755 H 14.900156789270934 46.070201224853584 24.754386692042686 H 0.0 **** 0.52
5756 M 14.50883597574327 46.7014842076089 25.21407716493735 M 0.0 **** -1.04
5757 O 34.842311115860234 15.538411540572696 9.003969566695204 O 0.0 **** 0.0
5758 H 34.67262186714928 15.541912257232397 9.94600059604015 H 0.0 **** 0.52
5759 H 34.24907270164623 14.872809833305311 8.655728232641493 H 0.0 **** 0.52
5760 M 34.74464596477748 15.453654296047318 9.079982087752235 M 0.0 **** -1.04
5761 O 9.768055481009633 46.56789579242354 30.34846197062439 O 0.0 **** 0.0
5762 H 10.315456821482968 46.18444398320357 31.033695868671508 H 0.0 **** 0.52
5763 H 9.396140629394054 45.81501846409165 29.8890231271354 H 0.0 **** 0.52
5764 M 9.79052040577372 46.422430940161604 30.377366631005597 M 0.0 **** -1.04
5765 O 5.22164534966943 30.037212359113433 48.59755436904456 O 0.0 **** 0.0
5766 H 4.961813663061207 30.701065857535053 47.9587933322308 H 0.0 **** 0.52
5767 H 4.688320160605521 29.27280019759794 48.37968760313282 H 0.0 **** 0.52
5768 M 5.1201113923165025 30.024339270328387 48.48789513153409 M 0.0 **** -1.04
5769 O 13.382985969998643 8.971245058499571 42.03661496687117 O 0.0 **** 0.0
5770 H 13.199083879277232 9.907646533573272 41.962040961598575 H 0.0 **** 0.52
5771 H 12.772674214772877 8.557457160516686 41.42626577157847 H 0.0 **** 0.52
5772 M 13.281316571195639 9.038147081496536 41.94893625269858 M 0.0 **** -1.04
5773 O 44.85525100756035 45.99782227173542 11.978088877493889 O 0.0 **** 0.0
5774 H 45.27047646006811 46.697237220036946 12.482703210550781 H 0.0 **** 0.52
5775 H 43.986065413333186 46.338225859341065 11.766260049600803 H 0.0 **** 0.52
5776 M 44.797138160383724 46.13093230709207 12.015568987237138 M 0.0 **** -1.04
5777 O 21.645848259406655 42.171278823647384 34.46017126070871 O 0.0 **** 0.0
5778 H 22.005664596754034 42.576548163931164 35.249168214780745 H 0.0 **** 0.52
5779 H 22.413192149183494 41.95256061969309 33.9314225408566 H 0.0 **** 0.52
5780 M 21.790139143240292 42.195159851550734 34.49348591083129 M 0.0 **** -1.04
5781 O 8.470720292701607 7.8481913184650836 25.301759331108485 O 0.0 **** 0.0
5782 H 8.410678435458237 7.632866613647906 24.371028920807994 H 0.0 **** 0.52
5783 H 8.406132240921579 8.802732470627035 25.331906706940345 H 0.0 **** 0.52
5784 M 8.454766208461564 7.942819844397896 25.186473108862096 M 0.0 **** -1.04
5785 O 11.128223773465152 8.69699656796491 13.28114446146946 O 0.0 **** 0.0
5786 H 10.766366298331675 8.394136542908115 12.448339670671196 H 0.0 **** 0.52
5787 H 11.856073328502127 9.26715324856297 13.033381720146643 H 0.0 **** 0.52
5788 M 11.175075530991897 8.731214368488828 13.142818380581005 M 0.0 **** -1.04
5789 O 32.951414474640565 8.819041246417358 43.6715436745023 O 0.0 **** 0.0
5790 H 32.289560237268034 9.108249364429788 44.29966406200209 H 0.0 **** 0.52
5791 H 32.63559411332061 7.9692855572157395 43.36429462491165 H 0.0 **** 0.52
5792 M 32.82626016060001 8.747284012992735 43.71261940842495 M 0.0 **** -1.04
5793 O 16.67244961821083 24.360643358218518 25.88375778561797 O 0.0 **** 0.0
5794 H 16.48894256141062 24.58871300923403 26.7950968595896 H 0.0 **** 0.52
5795 H 16.691969605683752 25.20072790131469 25.425384750252416 H 0.0 **** 0.52
5796 M 16.65145694209063 24.497379998601453 25.941743129172245 M 0.0 **** -1.04
5797 O 34.53606665342463 33.470083250704825 35.118432578863086 O 0.0 **** 0.0
5798 H 34.73583394523775 33.31153243701226 34.19583664241805 H 0.0 **** 0.52
5799 H 34.75845417764327 32.6487033890109 35.55673245068186 H 0.0 **** 0.52
5800 M 34.59010779766613 33.34463993439884 35.05643690777855 M 0.0 **** -1.04
5801 O 34.38247542170448 7.192647479979577 3.9902042766062777 O 0.0 **** 0.0
5802 H 33.655213064190534 7.813940889151027 4.026440407028282 H 0.0 **** 0.52
5803 H 33.98801967598907 6.348407845473631 4.209044541466184 H 0.0 **** 0.52
5804 M 34.23888120410598 7.164108455864408 4.022857462833912 M 0.0 **** -1.04
5805 O 3.7290806790870215 21.9127668967308 8.972507359510786 O 0.0 **** 0.0
5806 H 4.240583114955006 21.109816905593277 9.071828618133322 H 0.0 **** 0.52
5807 H 3.284578701099087 21.811588561092393 8.130837024795198 H 0.0 **** 0.52
5808 M 3.7376576560166526 21.797026573573717 8.877477932940677 M 0.0 **** -1.04
5809 O 11.589966353149938 38.40400668560114 49.148615456303524 O 0.0 **** 0.0
5810 H 12.159300997618086 37.94992654024115 49.76982167934965 H 0.0 **** 0.52
5811 H 11.983905085694282 39.270959654424075 49.05149162524483 H 0.0 **** 0.52
5812 M 11.713277459758393 38.45686002301312 49.21570463732693 M 0.0 **** -1.04
5813 O 27.14200194036592 2.9962899003154257 38.38124571353985 O 0.0 **** 0.0
5814 H 26.455655453207395 3.62516782286663 38.6041160727119 H 0.0 **** 0.52
5815 H 26.7107936850417 2.3642163564448504 37.80611784830484 H 0.0 **** 0.52
5816 M 26.99894087494694 2.995881176426765 38.33615187452623 M 0.0 **** -1.04
5817 O 37.19429183561234 38.916875296237485 45.41028124057571 O 0.0 **** 0.0
5818 H 38.028015633625046 39.02259320844472 44.952071054778685 H 0.0 **** 0.52
5819 H 36.56239685145252 39.39327963293577 44.871786759857414 H 0.0 **** 0.52
5820 M 37.220127897503396 38.99139478452926 45.28269064254944 M 0.0 **** -1.04
5821 O 46.71922158078886 35.58531461398175 49.91834377935587 O 0.0 **** 0.0
5822 H 46.609475911769614 34.67001491961368 49.66064143409991 H 0.0 **** 0.52
5823 H 47.628827283433985 35.645006058778456 50.21037640305869 H 0.0 **** 0.52
5824 M 46.821613795878484 35.47578628645181 49.92273877691161 M 0.0 **** -1.04
5825 O 42.49058589728975 46.50710757982773 28.68339132413037 O 0.0 **** 0.0
5826 H 41.82296185675605 45.954896138355394 28.276488320178988 H 0.0 **** 0.52
5827 H 42.88046493260939 45.95331451942369 29.359806455881355 H 0.0 **** 0.52
5828 M 42.455030876703745 46.36552503915943 28.7178926879156 M 0.0 **** -1.04
5829 O 41.56865112929504 3.983378361596824 29.334181490611954 O 0.0 **** 0.0
5830 H 40.857433845390574 3.535957372823395 29.79267226268222 H 0.0 **** 0.52
5831 H 42.3475288683591 3.7953141775608388 29.85783284049505 H 0.0 **** 0.52
5832 M 41.57731282933201 3.902028052354496 29.45990819606727 M 0.0 **** -1.04
5833 O 31.0644496857564 2.953512686438341 13.370725898068969 O 0.0 **** 0.0
5834 H 30.337442558365908 3.2923540347923703 13.89310129557169 H 0.0 **** 0.52
5835 H 31.4497972480749 2.265638472519352 13.913463600242494 H 0.0 **** 0.52
5836 M 31.02071279514479 2.908832526147304 13.507073576013887 M 0.0 **** -1.04
5837 O 8.906819242415725 31.703982401332787 15.533597970303138 O 0.0 **** 0.0
5838 H 8.801255840610635 32.3369841301223 14.823391666999154 H 0.0 **** 0.52
5839 H 8.36922774103924 32.05045627227475 16.245764801085198 H 0.0 **** 0.52
5840 M 8.824487330689083 31.829367922659618 15.533848557679258 M 0.0 **** -1.04
5841 O 0.6392426982928043 47.481121527444046 33.73590886040416 O 0.0 **** 0.0
5842 H 1.5449000369326171 47.749402905755545 33.89095630961989 H 0.0 **** 0.52
5843 H 0.7026930507501064 46.79413598940696 33.07239282388271 H 0.0 **** 0.52
5844 M 0.7633010927895612 47.42752240885549 33.67081792356657 M 0.0 **** -1.04
5845 O 40.13614588307453 25.99444013507881 29.70785971405796 O 0.0 **** 0.0
5846 H 40.81349339478083 26.670538003679265 29.725774376438395 H 0.0 **** 0.52
5847 H 39.54471223220281 26.22824222321182 30.423242256196204 H 0.0 **** 0.52
5848 M 40.14714448360527 26.110918624684494 29.80173125281995 M 0.0 **** -1.04
5849 O 4.65183213261983 2.8797601963043107 28.10919035625866 O 0.0 **** 0.0
5850 H 4.663399064830152 2.259134584903414 27.38054835781088 H 0.0 **** 0.52
5851 H 4.085600265425079 3.591017730541054 27.80965125538687 H 0.0 **** 0.52
5852 M 4.580828336297245 2.891361712700565 27.977570358818777 M 0.0 **** -1.04
5853 O 15.099992238205552 5.6455155625894164 49.94040077637476 O 0.0 **** 0.0
5854 H 15.789541535760868 5.86025481845698 50.568603157242826 H 0.0 **** 0.52
5855 H 15.520098652216047 5.054379630124096 49.31566222176932 H 0.0 **** 0.52
5856 M 15.24204206428625 5.597332360480948 49.94084407087628 M 0.0 **** -1.04
5857 O 9.684028211783016 1.0221757911223577 18.119604752060404 O 0.0 **** 0.0
5858 H 10.216451178023917 0.2668063570128325 18.36894462114845 H 0.0 **** 0.52
5859 H 9.236284075434057 1.2769919683117408 18.92634077952741 H 0.0 **** 0.52
5860 M 9.694868583697357 0.9580986827865061 18.254796427385063 M 0.0 **** -1.04
5861 O 11.517680120678339 0.7746990940421924 11.669957739842149 O 0.0 **** 0.0
5862 H 11.740807085477718 1.1333803551143504 12.528905863451127 H 0.0 **** 0.52
5863 H 11.840749141042231 -0.1259909738697118 11.694705748736936 H 0.0 **** 0.52
5864 M 11.58759948967075 0.7053152365242616 11.783081847978483 M 0.0 **** -1.04
5865 O 19.221720722185903 10.246552679448783 23.02833204533361 O 0.0 **** 0.0
5866 H 19.407077772794995 9.96354456616163 22.132911007501196 H 0.0 **** 0.52
5867 H 18.576957577214845 9.616690243531316 23.350485047079466 H 0.0 **** 0.52
5868 M 19.162911108617237 10.129693733462423 22.95494722951415 M 0.0 **** -1.04
5869 O 8.07332722865219 4.788576722084031 48.52631997504252 O 0.0 **** 0.0
5870 H 8.280553617253503 5.721831732094664 48.47813787858894 H 0.0 **** 0.52
5871 H 8.925942859557296 4.354894428817616 48.560893598699664 H 0.0 **** 0.52
5872 M 8.20900049525985 4.85252861542849 48.524577255422955 M 0.0 **** -1.04
5873 O 42.262557658339 9.486220284488397 36.6912191677251 O 0.0 **** 0.0
5874 H 42.37072516945779 9.014729957769987 37.51718826749066 H 0.0 **** 0.52
5875 H 42.90048839336724 10.198440565255169 36.7361155326563 H 0.0 **** 0.52
5876 M 42.35806786803919 9.51703659618478 36.80270000552452 M 0.0 **** -1.04
5877 O 0.14203209952156876 22.483812341400004 27.541332094120925 O 0.0 **** 0.0
5878 H 0.5383626014740467 22.94977540017663 28.277557916818278 H 0.0 **** 0.52
5879 H 0.6936804663264691 21.710782151146798 27.421600483932394 H 0.0 **** 0.52
5880 M 0.26338547324831524 22.444504084555042 27.62025078071632 M 0.0 **** -1.04
5881 O 6.988679777082723 47.503492097791714 20.32580301753666 O 0.0 **** 0.0
5882 H 6.979536304107263 46.900337408180796 21.06900486361638 H 0.0 **** 0.52
5883 H 7.089077703854166 48.36957847146455 20.720828568347272 H 0.0 **** 0.52
5884 M 7.000361744015592 47.53715114798149 20.47150990117261 M 0.0 **** -1.04
5885 O 11.064841803985038 9.918728086890367 34.72259246544467 O 0.0 **** 0.0
5886 H 11.892278053222977 9.73637569847231 34.27725582205744 H 0.0 **** 0.52
5887 H 10.901069175964258 10.846652329280307 34.554175238634706 H 0.0 **** 0.52
5888 M 11.149798910414408 10.014170031671574 34.644024814763675 M 0.0 **** -1.04
5889 O 14.683677043190691 17.545939307694177 4.42110517044982 O 0.0 **** 0.0
5890 H 15.472710510690481 17.150592135845137 4.050489910373955 H 0.0 **** 0.52
5891 H 14.867933627926387 18.485180486595624 4.431293344487827 H 0.0 **** 0.52
5892 M 14.808270413064268 17.61556429351161 4.374965897108488 M 0.0 **** -1.04
5893 O 25.406062361376954 6.365355801953944 46.05851260107442 O 0.0 **** 0.0
5894 H 24.819658098085885 7.044886406720758 45.725951091865014 H 0.0 **** 0.52
5895 H 24.970924399922556 6.036824986580196 46.84524761471147 H 0.0 **** 0.52
5896 M 25.275292229801234 6.4102877682107 46.116652166311475 M 0.0 **** -1.04
5897 O 21.47701860879716 47.627587609249865 46.419868413163464 O 0.0 **** 0.0
5898 H 20.668188590374704 47.9771855834331 46.04596589290655 H 0.0 **** 0.52
5899 H 22.129453667568335 47.74071757277574 45.72866816864048 H 0.0 **** 0.52
5900 M 21.456997797064822 47.68682249584345 46.283522630237044 M 0.0 **** -1.04
5901 O 48.99345152537855 45.21278865625064 19.6346085825176 O 0.0 **** 0.0
5902 H 48.82095236597332 46.01295033532802 19.13840964236113 H 0.0 **** 0.52
5903 H 49.32670808725768 45.520291557907946 20.477585003089793 H 0.0 **** 0.52
5904 M 49.014030344154 45.35458353983943 19.6790001836922 M 0.0 **** -1.04
5905 O 43.69243597120237 26.04858237727882 38.6796743738671 O 0.0 **** 0.0
5906 H 43.06560473762938 25.377556867438493 38.40942239891366 H 0.0 **** 0.52
5907 H 44.14032476596723 25.668211369051946 39.435282393741765 H 0.0 **** 0.52
5908 M 43.669528548248095 25.91399002636786 38.741806796118595 M 0.0 **** -1.04
5909 O 29.050256336202683 25.856998800281296 32.910315024678646 O 0.0 **** 0.0
5910 H 28.166187487538476 25.89014270859978 32.54486682246056 H 0.0 **** 0.52
5911 H 29.028928755915153 25.122635413338834 33.523897722298926 H 0.0 **** 0.52
5912 M 28.934353984728943 25.767234239997567 32.942079463882536 M 0.0 **** -1.04
5913 O 10.534303084803568 43.469704285826886 46.47429591223408 O 0.0 **** 0.0
5914 H 11.013425069894318 43.836996697026265 47.21710617825592 H 0.0 **** 0.52
5915 H 9.977759828025768 42.7925091478698 46.85886550341082 H 0.0 **** 0.52
5916 M 10.524392015883222 43.43003324096922 46.618614105258274 M 0.0 **** -1.04
5917 O 42.57638098865989 28.771089952869964 9.505283765024927 O 0.0 **** 0.0
5918 H 42.856613181202086 28.517822795109186 10.384803319805776 H 0.0 **** 0.52
5919 H 41.743566803226365 29.223398798223958 9.639695897785934 H 0.0 **** 0.52
5920 M 42.50564275066011 28.796569941167437 9.635080032872082 M 0.0 **** -1.04
5921 O 37.24740105827961 46.40319564544506 0.647485511910304 O 0.0 **** 0.0
5922 H 38.18186082679878 46.502152829722164 0.8297529510032646 H 0.0 **** 0.52
5923 H 37.06007230055155 47.06918959784886 -0.0140201099608106 H 0.0 **** 0.52
5924 M 37.343043043659485 46.501119474058726 0.5861371161428082 M 0.0 **** -1.04
5925 O 5.975321888206043 22.901481380623707 40.11822809408571 O 0.0 **** 0.0
5926 H 5.1446552177566565 22.73355566214849 39.67323027989485 H 0.0 **** 0.52
5927 H 6.340951364008044 22.03180623320921 40.28012151887452 H 0.0 **** 0.52
5928 M 5.915791796594632 22.768655493696897 40.081986850607706 M 0.0 **** -1.04
5929 O 20.418408530289042 37.45497332983603 41.37985554872176 O 0.0 **** 0.0
5930 H 20.561133186730636 38.40092654340211 41.347734753085305 H 0.0 **** 0.52
5931 H 20.892548428255022 37.167081359395674 42.159944676713195 H 0.0 **** 0.52
5932 M 20.49737515763595 37.53921359759313 41.47560478086312 M 0.0 **** -1.04
5933 O 2.988005973077614 7.424681136218588 29.136083808127417 O 0.0 **** 0.0
5934 H 3.0600475278905224 8.181891960144739 28.554989520281246 H 0.0 **** 0.52
5935 H 3.0239896042062178 6.668427757267447 28.550407891353462 H 0.0 **** 0.52
5936 M 3.0018336981169433 7.424803780510155 28.986722146598776 M 0.0 **** -1.04
5937 O 47.12007367816291 28.39054778214059 7.593396016932211 O 0.0 **** 0.0
5938 H 46.83606214782356 28.385528048505506 6.679316354916708 H 0.0 **** 0.52
5939 H 47.37149037000594 27.48430571843262 7.771566052546653 H 0.0 **** 0.52
5940 M 47.11590144042643 28.273894924950664 7.4991896018973705 M 0.0 **** -1.04
5941 O 17.097250927843735 30.12511853075257 36.583199204602 O 0.0 **** 0.0
5942 H 17.218095671067374 30.140058910970296 37.53262138541472 H 0.0 **** 0.52
5943 H 17.604392600093718 29.368649207310625 36.28859757499044 H 0.0 **** 0.52
5944 M 17.17764126486136 30.03019367827254 36.66702454624662 M 0.0 **** -1.04
5945 O 32.47604180106569 18.249505767778743 12.58220104855552 O 0.0 **** 0.0
5946 H 32.34371280313318 18.04862482978812 11.655722258453777 H 0.0 **** 0.52
5947 H 31.770853108585698 18.859509690046256 12.79860849826971 H 0.0 **** 0.52
5948 M 32.368829531424886 18.30187855697538 12.491303183843321 M 0.0 **** -1.04
5949 O 16.598653428925328 42.088353301904554 24.195496837859384 O 0.0 **** 0.0
5950 H 16.248768508534365 41.373926778917074 24.727854123069555 H 0.0 **** 0.52
5951 H 17.544372946619227 42.05381423732148 24.33919559941932 H 0.0 **** 0.52
5952 M 16.67492768062779 41.99247562748487 24.282040067179253 M 0.0 **** -1.04
5953 O 11.438924971795087 31.73341367790083 2.1559753739295697 O 0.0 **** 0.0
5954 H 12.283746338961642 31.28717907399068 2.2141060597365465 H 0.0 **** 0.52
5955 H 11.37027885718581 31.998773069483388 1.2388597359632485 H 0.0 **** 0.52
5956 M 11.538284698916218 31.710259328261305 2.046014474891907 M 0.0 **** -1.04
5957 O 3.7952882503893246 5.786523115528552 35.607156955764616 O 0.0 **** 0.0
5958 H 4.312171497322367 6.255635464061055 34.95218071383002 H 0.0 **** 0.52
5959 H 3.6902147822064397 6.412707640636967 36.3234545707385 H 0.0 **** 0.52
5960 M 3.848004710768886 5.9267349604345405 35.61500735111115 M 0.0 **** -1.04
5961 O 9.19855772744851 21.54079727172209 31.282873889101555 O 0.0 **** 0.0
5962 H 9.643415852682132 21.044800383774938 31.97012614230846 H 0.0 **** 0.52
5963 H 9.902291832856434 22.00005460120148 30.824540200954154 H 0.0 **** 0.52
5964 M 9.345591943748985 21.536094296813978 31.31217825556647 M 0.0 **** -1.04
5965 O 45.75955557739429 36.78405995580305 15.817113341393245 O 0.0 **** 0.0
5966 H 45.16334323319849 36.56234957115201 16.5323787231505 H 0.0 **** 0.52
5967 H 45.38526826613731 37.57501331789357 15.429131723950306 H 0.0 **** 0.52
5968 M 45.63531952788907 36.856930028830604 15.85901007980204 M 0.0 **** -1.04
5969 O 47.993398856595476 28.097295865401136 19.279446184382152 O 0.0 **** 0.0
5970 H 47.398944606499555 28.63530582930602 19.802320667641826 H 0.0 **** 0.52
5971 H 47.6952665025596 28.21719275779543 18.37779739103115 H 0.0 **** 0.52
5972 M 47.8791366733911 28.181516656589054 19.23095852579714 M 0.0 **** -1.04
5973 O 14.323360466206543 20.325631498916593 13.139570729807144 O 0.0 **** 0.0
5974 H 15.173571420007613 20.634263314835465 13.452805911369326 H 0.0 **** 0.52
5975 H 14.53516813650749 19.70992748545993 12.437947254617605 H 0.0 **** 0.52
5976 M 14.459312475221015 20.286322764534304 13.089852381089674 M 0.0 **** -1.04
5977 O 35.68205949423008 3.51452384846168 14.069757229239467 O 0.0 **** 0.0
5978 H 35.16636170167832 3.868750057534914 13.345319895571706 H 0.0 **** 0.52
5979 H 36.55872169320346 3.876119128549419 13.939602778719138 H 0.0 **** 0.52
5980 M 35.728267462508335 3.6061573728045526 13.960358162323447 M 0.0 **** -1.04
5981 O 24.62903928540469 22.624303262573786 16.24543010917932 O 0.0 **** 0.0
5982 H 23.820273236215236 22.46465020338948 15.758977958868337 H 0.0 **** 0.52
5983 H 24.931626208137246 21.75278229265408 16.50061792673742 H 0.0 **** 0.52
5984 M 24.564242297944038 22.492300093722772 16.215825871689912 M 0.0 **** -1.04
5985 O 9.216158548381983 35.077969710122446 43.77533355803218 O 0.0 **** 0.0
5986 H 10.084369706063399 35.25374500933675 43.41264825655386 H 0.0 **** 0.52
5987 H 9.177487804146537 35.606630687735915 44.57235937947452 H 0.0 **** 0.52
5988 M 9.322350139207792 35.16814630193644 43.83093408055393 M 0.0 **** -1.04
5989 O 7.182421500578805 4.982386432636396 1.2387430089233458 O 0.0 **** 0.0
5990 H 7.159389346408193 4.158211009233611 1.7249862742579833 H 0.0 **** 0.52
5991 H 7.68250935789837 4.780566910954448 0.4479144083936303 H 0.0 **** 0.52
5992 M 7.243490469938585 4.851046281508097 1.1997523279222175 M 0.0 **** -1.04
5993 O 1.6569636803366943 9.607044819456753 5.695839716253514 O 0.0 **** 0.0
5994 H 2.496618219979607 10.02840880855124 5.51237105510981 H 0.0 **** 0.52
5995 H 1.0322508716178813 10.060190263370941 5.129604432285003 H 0.0 **** 0.52
5996 M 1.6844790241527166 9.71899276830176 5.5998676884584775 M 0.0 **** -1.04
5997 O 16.84652165795228 6.8249451333999005 4.05214109157906 O 0.0 **** 0.0
5998 H 16.795713404085618 7.780001789642981 4.013223481281351 H 0.0 **** 0.52
5999 H 17.773305913824835 6.639910626329559 4.204003966141833 H 0.0 **** 0.52
6000 M 16.95865812061606 6.923517871633734 4.066599435687245 M 0.0 **** -1.04
6001 O 24.546726525631893 40.41103762638206 18.50399726505338 O 0.0 **** 0.0
6002 H 23.73104318179746 40.14143313320275 18.92613807416296 H 0.0 **** 0.52
6003 H 24.300187097030715 41.160624123763206 17.962178027291415 H 0.0 **** 0.52
6004 M 24.410748655386293 40.47248130578512 18.488676953180384 M 0.0 **** -1.04
6005 O 20.505921376496556 19.32183734957711 40.41974220368933 O 0.0 **** 0.0
6006 H 20.58991077031114 19.844707660441397 39.622383470904445 H 0.0 **** 0.52
6007 H 21.021575929329924 19.79524438090349 41.07259405647214 H 0.0 **** 0.52
6008 M 20.582683758220117 19.449373602636424 40.40124321840054 M 0.0 **** -1.04
6009 O 12.73177379190864 29.34858892491043 41.80726483870092 O 0.0 **** 0.0
6010 H 11.84447532047974 29.521089828043795 42.12218218909662 H 0.0 **** 0.52
6011 H 13.011872562629241 28.57231983090834 42.29221801081562 H 0.0 **** 0.52
6012 M 12.654044452226337 29.271299181460797 41.90965842514581 M 0.0 **** -1.04
6013 O 25.220044095303646 49.61225363455661 12.721945189436461 O 0.0 **** 0.0
6014 H 24.601221127607364 49.27712778572161 12.073117031287792 H 0.0 **** 0.52
6015 H 25.64083665515835 50.35593208130813 12.29054531320495 H 0.0 **** 0.52
6016 M 25.19469424673628 49.664553000768095 12.5836627346583 M 0.0 **** -1.04
6017 O 34.47483083219081 6.534177840890189 1.565584422058854 O 0.0 **** 0.0
6018 H 34.424814994286855 7.351707893032808 1.0702344615931112 H 0.0 **** 0.52
6019 H 34.350783772824656 6.798017670395721 2.477302774760531 H 0.0 **** 0.52
6020 M 34.45254914372787 6.672606196630621 1.6188850423295407 M 0.0 **** -1.04
6021 O 40.18754087064015 12.651885925377504 20.62675440759721 O 0.0 **** 0.0
6022 H 39.49700045289171 13.2088344794 20.26732179878307 H 0.0 **** 0.52
6023 H 40.82051093838138 13.265199295856213 21.000149781918584 H 0.0 **** 0.52
6024 M 40.180171135861826 12.801694695442908 20.62854148755767 M 0.0 **** -1.04
6025 O 18.785468993662654 42.85056893614044 45.06030067086499 O 0.0 **** 0.0
6026 H 19.712830388118707 42.6602415226384 45.20173748365118 H 0.0 **** 0.52
6027 H 18.410333507815174 42.8836510067058 45.940305235041826 H 0.0 **** 0.52
6028 M 18.85616084387635 42.83043984467389 45.19105816996196 M 0.0 **** -1.04
6029 O 26.595176897566667 9.302935811325568 32.842431579612395 O 0.0 **** 0.0
6030 H 26.319915405105014 8.656547309122534 33.49253975968719 H 0.0 **** 0.52
6031 H 27.40117515053421 8.94288376521592 32.47235373399312 H 0.0 **** 0.52
6032 M 26.663118068474738 9.174098574827546 32.878278921231896 M 0.0 **** -1.04
6033 O 31.19765360570745 24.952015769351416 20.243884740319878 O 0.0 **** 0.0
6034 H 30.77980567385583 25.807162669757655 20.345655797747323 H 0.0 **** 0.52
6035 H 32.13542745252673 25.13459079355459 20.30283549341905 H 0.0 **** 0.52
6036 M 31.264210267704623 25.084856913505348 20.26445909889237 M 0.0 **** -1.04
6037 O 14.734597895469989 41.75741988526133 4.619340712780529 O 0.0 **** 0.0
6038 H 15.607891620218524 42.13699716013015 4.521836153440718 H 0.0 **** 0.52
6039 H 14.21323506356039 42.17572956872242 3.934194028874857 H 0.0 **** 0.52
6040 M 14.779649684221638 41.859559876537325 4.519150849209328 M 0.0 **** -1.04
6041 O 29.59755422009806 28.014790471456873 5.579953938964017 O 0.0 **** 0.0
6042 H 29.127817107198226 28.715918648535567 5.128295061551839 H 0.0 **** 0.52
6043 H 29.288859797475514 28.063170735202437 6.484716066842417 H 0.0 **** 0.52
6044 M 29.49790555031463 28.1107368487799 5.637956532069765 M 0.0 **** -1.04
6045 O 49.91403199018844 32.02869312437723 21.896344907038895 O 0.0 **** 0.0
6046 H 50.044166403523725 32.830828991760676 21.39050773766084 H 0.0 **** 0.52
6047 H 49.005872596852285 32.07783853410758 22.19477358591587 H 0.0 **** 0.52
6048 M 49.814435165986716 32.13766757752496 21.86979434190185 M 0.0 **** -1.04
6049 O 46.203442420980224 0.1828107950613989 32.05210479008408 O 0.0 **** 0.0
6050 H 46.656588362075134 -0.0014474250146747636 32.8748666536913 H 0.0 **** 0.52
6051 H 45.60384465801429 -0.5545442149757491 31.938005124509658 H 0.0 **** 0.52
6052 M 46.1846949390289 0.06483344544480885 32.14282258192738 M 0.0 **** -1.04
6053 O 22.719732488932067 33.67689444600764 46.48271179346217 O 0.0 **** 0.0
6054 H 21.971679266188406 33.75388402711629 45.89049809024219 H 0.0 **** 0.52
6055 H 22.97772424927489 34.581013031688244 46.662264579149486 H 0.0 **** 0.52
6056 M 22.65699882383144 33.80248891633251 46.429886377459496 M 0.0 **** -1.04
6057 O 40.38299497885466 9.569073717862636 42.35654519283477 O 0.0 **** 0.0
6058 H 39.54710043361321 9.944657403986774 42.08005502140845 H 0.0 **** 0.52
6059 H 40.15102949072896 8.722953572098483 42.73930070320142 H 0.0 **** 0.52
6060 M 40.24629538456953 9.508839177666857 42.37014855792187 M 0.0 **** -1.04
6061 O 28.37417853084196 46.36099200580506 31.045185546748083 O 0.0 **** 0.0
6062 H 27.9373836126177 47.09944510726026 30.620773045949626 H 0.0 **** 0.52
6063 H 28.33060387856872 45.65407357933383 30.401294755513216 H 0.0 **** 0.52
6064 M 28.31268503164911 46.36502931896774 30.908429859095047 M 0.0 **** -1.04
6065 O 22.37169785935481 24.019365036121073 30.66411950662813 O 0.0 **** 0.0
6066 H 22.333793272899953 23.553935569246605 29.828555556382096 H 0.0 **** 0.52
6067 H 22.123731054504944 23.363441270856498 31.315659773494883 H 0.0 **** 0.52
6068 M 22.33510327329762 23.875817308080187 30.64056250073645 M 0.0 **** -1.04
6069 O 18.358784868953187 23.436632049828958 33.34946403416364 O 0.0 **** 0.0
6070 H 18.77905030585962 22.615061907114963 33.09524275118133 H 0.0 **** 0.52
6071 H 17.42792270414342 23.221695028478933 33.408841405714256 H 0.0 **** 0.52
6072 M 18.29342296736843 23.30394684551861 33.32452145305506 M 0.0 **** -1.04
6073 O 30.616448038642776 2.262609755552152 1.8353211740834052 O 0.0 **** 0.0
6074 H 29.93515136194085 1.993138400678396 2.4513151580747405 H 0.0 **** 0.52
6075 H 30.421925984475447 3.181142055647261 1.6490738301302268 H 0.0 **** 0.52
6076 M 30.50433274736124 2.3456980519729074 1.8903335451353243 M 0.0 **** -1.04
6077 O 3.4918153403799486 33.56194737607103 18.446239183774864 O 0.0 **** 0.0
6078 H 3.9958523096594725 34.27556819044811 18.05518937712594 H 0.0 **** 0.52
6079 H 2.7393681547618316 33.452847874996756 17.86473382395556 H 0.0 **** 0.52
6080 M 3.4600159501812215 33.63933302906623 18.321740045052977 M 0.0 **** -1.04
6081 O 28.451337897528035 47.10518546110801 8.204143467399305 O 0.0 **** 0.0
6082 H 28.81550934381835 47.83355823183469 8.707215609310808 H 0.0 **** 0.52
6083 H 29.211865520478568 46.576805979185714 7.961986052828948 H 0.0 **** 0.52
6084 M 28.595313057650202 47.13078686085975 8.237543986849445 M 0.0 **** -1.04
6085 O 34.72265653432996 28.85033056983045 48.46229730304036 O 0.0 **** 0.0
6086 H 35.672607606717065 28.76870951639599 48.37768752864471 H 0.0 **** 0.52
6087 H 34.572175601504554 28.937686643816324 49.40354771889111 H 0.0 **** 0.52
6088 M 34.824998863975466 28.85106416105071 48.571958063035154 M 0.0 **** -1.04
6089 O 23.592599291807204 15.248163925756572 41.755500406648494 O 0.0 **** 0.0
6090 H 24.24365130662713 14.828586671489404 41.19308198272715 H 0.0 **** 0.52
6091 H 23.9496382800356 16.119525843340966 41.92719814255115 H 0.0 **** 0.52
6092 M 23.72164727006762 15.305998269479048 41.70548325013117 M 0.0 **** -1.04
6093 O 16.08386324388986 34.524396012333334 49.3148129124829 O 0.0 **** 0.0
6094 H 15.491711167234854 34.22106646989834 48.62664441453459 H 0.0 **** 0.52
6095 H 16.85063422314815 33.95644336058713 49.239175910256215 H 0.0 **** 0.52
6096 M 16.106217003176837 34.412860451744514 49.2170364352919 M 0.0 **** -1.04
6097 O 7.411690486821861 25.30818496253928 24.44774693904968 O 0.0 **** 0.0
6098 H 6.512160364630432 25.15384665397968 24.736282237132922 H 0.0 **** 0.52
6099 H 7.343669166569292 25.420464654268617 23.499593110347814 H 0.0 **** 0.52
6100 M 7.287831624927648 25.302801417519177 24.363308247282934 M 0.0 **** -1.04
6101 O 5.588672457562753 1.9695077065492144 23.742131823698514 O 0.0 **** 0.0
6102 H 5.639606248699073 2.925068834508851 23.718921289412805 H 0.0 **** 0.52
6103 H 6.135889499941626 1.718010791383466 24.486129720601497 H 0.0 **** 0.52
6104 M 5.665243074185268 2.059636700247788 23.834402136193518 M 0.0 **** -1.04
6105 O 3.269967633083771 28.37053342197189 37.16805227736867 O 0.0 **** 0.0
6106 H 2.7622373171232324 28.391402276571455 36.356878468174585 H 0.0 **** 0.52
6107 H 4.171229845851846 28.536096177514665 36.89138586682412 H 0.0 **** 0.52
6108 M 3.3203451866160045 28.39439895833641 37.02879549624781 M 0.0 **** -1.04
6109 O 10.730052735792219 15.207034035599653 21.614489752879237 O 0.0 **** 0.0
6110 H 10.229893597219691 14.887762898828141 22.365579597377376 H 0.0 **** 0.52
6111 H 10.35132572266867 14.751333952268064 20.862736870594546 H 0.0 **** 0.52
6112 M 10.617544086081942 15.107827560183823 21.61440461215126 M 0.0 **** -1.04
6113 O 13.72210421351123 30.807206894806484 2.9277557724700287 O 0.0 **** 0.0
6114 H 14.315296738532709 31.547769207078087 2.801588829773621 H 0.0 **** 0.52
6115 H 13.949979023262962 30.461513377217873 3.7907715651619185 H 0.0 **** 0.52
6116 M 13.827211617100794 30.857755547769834 3.022081370635334 M 0.0 **** -1.04
6117 O 8.477157168159287 48.510744861357416 27.082840597894574 O 0.0 **** 0.0
6118 H 8.842357826370971 49.32348225810709 26.733105250680815 H 0.0 **** 0.52
6119 H 7.533412219051364 48.59320245565256 26.945817255964258 H 0.0 **** 0.52
6120 M 8.403096472609548 48.62534132864481 27.020529351678924 M 0.0 **** -1.04
6121 O 0.05470914572047292 29.10775623618288 42.16665135777611 O 0.0 **** 0.0
6122 H 0.8663902052013128 28.79945531201337 42.56958067009417 H 0.0 **** 0.52
6123 H 0.06195954560954675 28.72523177548046 41.289239360007336 H 0.0 **** 0.52
6124 M 0.15954247993794013 29.019321630559837 42.10591218410589 M 0.0 **** -1.04
6125 O 10.67063259548206 42.70338063761402 4.0265956702754195 O 0.0 **** 0.0
6126 H 10.323486154208693 42.306280431888275 3.2278272187127115 H 0.0 **** 0.52
6127 H 11.316721717047237 42.07369870384044 4.3464355693083405 H 0.0 **** 0.52
6128 M 10.708901023288199 42.57193944474289 3.965286716452489 M 0.0 **** -1.04
6129 O 30.377436346467377 7.757910425826735 40.551260422351824 O 0.0 **** 0.0
6130 H 30.417489686587416 7.388882983395441 41.43355513964891 H 0.0 **** 0.52
6131 H 29.571668459027478 8.274541222273378 40.543560595272155 H 0.0 **** 0.52
6132 M 30.279415612090727 7.776805961700673 40.66322046157693 M 0.0 **** -1.04
6133 O 0.8449758773253251 8.705111427410827 31.616196458723103 O 0.0 **** 0.0
6134 H 1.797789526975457 8.687674227668454 31.706035674185294 H 0.0 **** 0.52
6135 H 0.6089413112283779 7.8059706792075385 31.38802287659499 H 0.0 **** 0.52
6136 M 0.9367327486083212 8.587778024364876 31.598487737283627 M 0.0 **** -1.04
6137 O 7.15889040607653 26.81204520695092 0.500980974106163 O 0.0 **** 0.0
6138 H 6.225748483533252 26.65815668513222 0.35336266045676723 H 0.0 **** 0.52
6139 H 7.573273565199699 25.9691720521209 0.3163703269186442 H 0.0 **** 0.52
6140 M 7.092482863742475 26.68444683305033 0.4584510538023139 M 0.0 **** -1.04
6141 O 19.24579952740566 3.132592528846423 17.261665116972797 O 0.0 **** 0.0
6142 H 19.20430146825388 2.642642686805117 18.082918449904376 H 0.0 **** 0.52
6143 H 18.379737290897562 3.018728165272976 16.870256800739597 H 0.0 **** 0.52
6144 M 19.129620099327656 3.0552966851509797 17.31669116364958 M 0.0 **** -1.04
6145 O 32.867806541670674 29.709019818568393 7.7587401506403 O 0.0 **** 0.0
6146 H 32.174482075292914 30.36866020960862 7.738663481109285 H 0.0 **** 0.52
6147 H 32.96188388074328 29.48785369885138 8.685273698427167 H 0.0 **** 0.52
6148 M 32.79109512096544 29.76514950740876 7.874777807062998 M 0.0 **** -1.04
6149 O 30.139955004024277 20.043914759660336 30.700566864346104 O 0.0 **** 0.0
6150 H 30.415883375882505 20.830810583566446 30.230581120496872 H 0.0 **** 0.52
6151 H 30.742721438901125 19.362654735000522 30.40259620569647 H 0.0 **** 0.52
6152 M 30.25243861258928 20.057436926948256 30.602258728411044 M 0.0 **** -1.04
6153 O 39.84260849633928 36.88779437310519 3.2290241007522065 O 0.0 **** 0.0
6154 H 39.14397984403223 36.95305687165503 3.8800904141057684 H 0.0 **** 0.52
6155 H 39.438954115831045 37.18431775975561 2.413324678545718 H 0.0 **** 0.52
6156 M 39.7015028008822 36.934107557873055 3.2079492490983195 M 0.0 **** -1.04
6157 O 27.56519923674391 17.058365521214586 43.67251348678051 O 0.0 **** 0.0
6158 H 28.271932287202958 16.636237258577246 44.160945037315116 H 0.0 **** 0.52
6159 H 27.655586112033934 17.989310719493986 43.875982162750155 H 0.0 **** 0.52
6160 M 27.6672411380954 17.123500387101828 43.76108474853862 M 0.0 **** -1.04
6161 O 38.10010819323793 15.23638980803976 0.8937365603641538 O 0.0 **** 0.0
6162 H 38.5556130066409 15.55934979267004 1.6711948728063177 H 0.0 **** 0.52
6163 H 38.23867770737937 15.916478217566514 0.23456536103574877 H 0.0 **** 0.52
6164 M 38.17615696652844 15.36479229594697 0.9088790903460051 M 0.0 **** -1.04
6165 O 21.04934797400562 9.593547081653982 40.1563112414797 O 0.0 **** 0.0
6166 H 20.485670518785035 8.879088049987265 39.85958884617016 H 0.0 **** 0.52
6167 H 21.939205402115068 9.280368707577207 39.994135408170955 H 0.0 **** 0.52
6168 M 21.091102972617445 9.461996311175458 40.09756617936835 M 0.0 **** -1.04
6169 O 36.63762419184405 44.76318823354087 13.320881240461667 O 0.0 **** 0.0
6170 H 36.88153536481503 45.68578255524322 13.395421404750522 H 0.0 **** 0.52
6171 H 35.73803900639412 44.77842170451409 12.994167195304733 H 0.0 **** 0.52
6172 M 36.55368998872053 44.8832427967504 13.288599430202538 M 0.0 **** -1.04
6173 O 8.470114186856746 19.23967666538586 14.707846967332955 O 0.0 **** 0.0
6174 H 7.745339742102176 19.71965987415808 14.307162539787951 H 0.0 **** 0.52
6175 H 8.681397207661686 19.738757902448672 15.496837198271866 H 0.0 **** 0.52
6176 M 8.40438007901221 19.36500901221405 14.75755428757266 M 0.0 **** -1.04
6177 O 8.432143704214901 48.36598059633831 11.12609239051109 O 0.0 **** 0.0
6178 H 8.333054240717116 49.18566708635031 10.641814803336402 H 0.0 **** 0.52
6179 H 8.821988415245013 47.76037203296987 10.495625938389445 H 0.0 **** 0.52
6180 M 8.469364328340045 48.39338559011296 10.98339071249029 M 0.0 **** -1.04
6181 O 40.641199295474344 2.3051873469867474 36.9982673690462 O 0.0 **** 0.0
6182 H 39.98413283665746 2.292496256687579 36.30232834206781 H 0.0 **** 0.52
6183 H 40.431333505436754 3.0849181217950306 37.51227666353857 H 0.0 **** 0.52
6184 M 40.530221570364866 2.4033774545934983 36.974977864720906 M 0.0 **** -1.04
6185 O 34.23437533754394 33.34549587883152 32.32218091040909 O 0.0 **** 0.0
6186 H 33.31000596182583 33.15839645500093 32.485776198827814 H 0.0 **** 0.52
6187 H 34.43358665663889 32.87920660711453 31.510320770764263 H 0.0 **** 0.52
6188 M 34.141545609014536 33.261854363769736 32.239195078357305 M 0.0 **** -1.04
6189 O 14.33263347112465 19.71750124650457 43.66890181491478 O 0.0 **** 0.0
6190 H 14.977842702671971 19.33516992521075 43.0741269686529 H 0.0 **** 0.52
6191 H 13.56933709072117 19.144612777707156 43.59536962901698 H 0.0 **** 0.52
6192 M 14.31751694739166 19.59522101217919 43.58334951464436 M 0.0 **** -1.04
6193 O 27.14567426321817 33.15789368188095 31.67017403423997 O 0.0 **** 0.0
6194 H 27.20230251126881 32.21331623717681 31.52596533361645 H 0.0 **** 0.52
6195 H 26.26932344092498 33.3948791083555 31.36673318370674 H 0.0 **** 0.52
6196 M 27.040739593486123 33.067312791562266 31.612868850955095 M 0.0 **** -1.04
6197 O 49.23023090373772 5.108190961557316 42.99520760363683 O 0.0 **** 0.0
6198 H 49.52838168758334 5.831623372172887 42.443863429842025 H 0.0 **** 0.52
6199 H 49.481002495968866 4.320061759765682 42.51334346251775 H 0.0 **** 0.52
6200 M 49.30049973373785 5.099909295366226 42.86294415164604 M 0.0 **** -1.04
6201 O 33.50686933204856 42.76953442346594 6.928921414788817 O 0.0 **** 0.0
6202 H 33.80303033176711 43.65968172979616 6.738777806905858 H 0.0 **** 0.52
6203 H 32.71681438592691 42.88700212934335 7.456408660130904 H 0.0 **** 0.52
6204 M 33.44364467989449 42.898521268379945 6.972105542916246 M 0.0 **** -1.04
6205 O 15.515569836224126 47.29086461500239 0.41933377225671364 O 0.0 **** 0.0
6206 H 16.304304084328827 46.75076704581596 0.37013845256818456 H 0.0 **** 0.52
6207 H 14.93053876491951 46.80861728336413 1.003632166967492 H 0.0 **** 0.52
6208 M 15.541646063939183 47.15999154737774 0.48783332677851377 M 0.0 **** -1.04
6209 O 16.424516568803984 35.32011757432037 25.40247730787303 O 0.0 **** 0.0
6210 H 16.73212610462239 34.946642333196785 24.57657147615485 H 0.0 **** 0.52
6211 H 16.29191468276824 34.563374426641445 25.973429767975983 H 0.0 **** 0.52
6212 M 16.446919153436784 35.175436012623365 25.36983977076187 M 0.0 **** -1.04
6213 O 37.39861548617836 8.915069199026568 31.328619090235406 O 0.0 **** 0.0
6214 H 36.77054239126353 8.352909473518409 30.87504419727232 H 0.0 **** 0.52
6215 H 37.72387569844293 9.507331783917984 30.650636273765752 H 0.0 **** 0.52
6216 M 37.35985183497944 8.91892249402099 31.183764938270716 M 0.0 **** -1.04
6217 O 34.36783165025204 49.178076053826636 35.51250026641957 O 0.0 **** 0.0
6218 H 33.47018774756735 49.01706947893588 35.22174055664917 H 0.0 **** 0.52
6219 H 34.91410652057114 48.751683865115226 34.852195140537944 H 0.0 **** 0.52
6220 M 34.3228523565863 49.1028816722158 35.390751988507766 M 0.0 **** -1.04
6221 O 4.668185864771536 14.96865789699139 45.71738690355642 O 0.0 **** 0.0
6222 H 3.747196749159026 14.74991343867028 45.85936477918689 H 0.0 **** 0.52
6223 H 4.964130812722249 15.31830698037397 46.557858310938386 H 0.0 **** 0.52
6224 M 4.588172742569873 14.985415610119176 45.84315311576086 M 0.0 **** -1.04
6225 O 20.028167435743836 39.18843114735963 14.204989477321647 O 0.0 **** 0.0
6226 H 20.853219823241954 38.844085662946824 14.54695812035055 H 0.0 **** 0.52
6227 H 19.390364913031892 39.014930638049734 14.89733024675412 H 0.0 **** 0.52
6228 M 20.05213775219989 39.12214058940588 14.337394384576621 M 0.0 **** -1.04
6229 O 25.6291510782706 26.438411806136 0.229385634538545 O 0.0 **** 0.0
6230 H 25.540339103718974 25.95041650291395 -0.5892730266091704 H 0.0 **** 0.52
6231 H 25.393949141637982 25.808724925553296 0.9108557611413133 H 0.0 **** 0.52
6232 M 25.587673533490015 26.29533515432208 0.21182372195159616 M 0.0 **** -1.04
6233 O 36.435807965968266 31.346437982482136 17.22340941354229 O 0.0 **** 0.0
6234 H 37.36506026458933 31.576034135166076 17.225815145958077 H 0.0 **** 0.52
6235 H 36.32012702750506 30.82241104675061 16.430792335569357 H 0.0 **** 0.52
6236 M 36.5399556567487 31.308747143722787 17.12225197658027 M 0.0 **** -1.04
6237 O 9.060659248433314 15.251081797269542 47.57142739886829 O 0.0 **** 0.0
6238 H 8.487275541668408 15.309063469479543 48.335689824315004 H 0.0 **** 0.52
6239 H 8.590699351664513 14.682545971020192 46.96140026863189 H 0.0 **** 0.52
6240 M 8.927098500639493 15.18572452340594 47.591171224431235 M 0.0 **** -1.04
6241 O 13.431155040635318 18.12440478171024 23.95103862481793 O 0.0 **** 0.0
6242 H 12.893983809614802 18.75518221867607 23.47166755934896 H 0.0 **** 0.52
6243 H 12.962347084846963 17.98648342301479 24.774096466962238 H 0.0 **** 0.52
6244 M 13.302377066364947 18.18749686053212 23.995034799546602 M 0.0 **** -1.04
6245 O 36.61129772250285 13.969460361953075 20.936119384215537 O 0.0 **** 0.0
6246 H 36.51453274857343 14.351630181557866 21.808364742085313 H 0.0 **** 0.52
6247 H 36.67599443797637 13.027375274038121 21.092702790516853 H 0.0 **** 0.52
6248 M 36.607192862220614 13.897784497263643 21.067822175511328 M 0.0 **** -1.04
6249 O 49.90122964005892 22.56943987737301 12.80639717244318 O 0.0 **** 0.0
6250 H 49.88522802594573 23.344530021194316 13.367831049811262 H 0.0 **** 0.52
6251 H 50.67893679454094 22.086545173457587 13.08606274618372 H 0.0 **** 0.52
6252 M 49.99873729272283 22.6068446524686 12.914069114196906 M 0.0 **** -1.04
6253 O 48.20663905727747 26.640570824269602 25.136639670689195 O 0.0 **** 0.0
6254 H 47.41634886765408 27.122219697913803 25.38094727898771 H 0.0 **** 0.52
6255 H 48.53269888174182 26.280317030647712 25.96134010089556 H 0.0 **** 0.52
6256 M 48.14721189234314 26.656111409451253 25.273485960858437 M 0.0 **** -1.04
6257 O 22.665915926570424 16.11141511763868 4.437372756885708 O 0.0 **** 0.0
6258 H 23.12144443350872 16.055904424558403 5.277396981115274 H 0.0 **** 0.52
6259 H 23.304846475372134 16.50546100577399 3.843466806925811 H 0.0 **** 0.52
6260 M 22.80602011685303 16.154751465189083 4.468878606759546 M 0.0 **** -1.04
6261 O 44.31506331406593 0.5139845504859295 38.57627776552913 O 0.0 **** 0.0
6262 H 44.51488753901258 0.15171512904463924 37.713108809898586 H 0.0 **** 0.52
6263 H 44.446657074271535 -0.2172513245144927 39.179772662874214 H 0.0 **** 0.52
6264 M 44.357489382339516 0.3740024231796397 38.54303633875945 M 0.0 **** -1.04
6265 O 8.638253148052378 15.905561171373225 37.118030027703206 O 0.0 **** 0.0
6266 H 8.170478871269816 15.981889445512245 37.949648237661286 H 0.0 **** 0.52
6267 H 8.336448080137872 16.654050463291753 36.603340047022805 H 0.0 **** 0.52
6268 M 8.539737375368814 16.011147240189953 37.15860092503613 M 0.0 **** -1.04
6269 O 23.4445765399981 18.985330912465955 14.980422739225276 O 0.0 **** 0.0
6270 H 23.796624090882908 18.14238080318053 14.694547129062272 H 0.0 **** 0.52
6271 H 24.201032928852737 19.454329373255856 15.332619348658262 H 0.0 **** 0.52
6272 M 23.586478580824316 18.93746068000653 14.988912170751817 M 0.0 **** -1.04
6273 O 1.0162210083808905 14.990832363583149 6.59551841212776 O 0.0 **** 0.0
6274 H 0.78566682103105 15.707309654185797 7.186902569992299 H 0.0 **** 0.52
6275 H 0.18416437283391973 14.726314615614568 6.203165697627277 H 0.0 **** 0.52
6276 M 0.8801934493028585 15.048689260281284 6.6209967543174315 M 0.0 **** -1.04
6277 O 7.7942598305835205 16.97288095158258 41.77265925444552 O 0.0 **** 0.0
6278 H 8.340840330011318 16.189706564303137 41.83681735084634 H 0.0 **** 0.52
6279 H 8.140448332834296 17.562668134832208 42.442385598318836 H 0.0 **** 0.52
6280 M 7.908545374530576 16.94812525497261 41.86660570275029 M 0.0 **** -1.04
6281 O 33.9672970892554 32.98617010673031 6.608832476113991 O 0.0 **** 0.0
6282 H 34.16593080064625 32.34368242327506 7.2899944744104825 H 0.0 **** 0.52
6283 H 33.01819792659463 32.93181942099526 6.497090349936681 H 0.0 **** 0.52
6284 M 33.87122803973255 32.89696572018469 6.681724640293632 M 0.0 **** -1.04
6285 O 22.78054665185855 0.3137539001595101 44.66640944035004 O 0.0 **** 0.0
6286 H 23.213862754961163 -0.44101192336741235 44.26791946575261 H 0.0 **** 0.52
6287 H 21.96063555336792 0.40380503337263923 44.180750041565396 H 0.0 **** 0.52
6288 M 22.73105761589974 0.2286618358540596 44.55322676563299 M 0.0 **** -1.04
6289 O 47.22647814244931 24.141385029267216 34.38275248471116 O 0.0 **** 0.0
6290 H 47.65288708220213 23.926709458195205 33.5531037044713 H 0.0 **** 0.52
6291 H 47.696977558165905 23.623047019517518 35.03558099328043 H 0.0 **** 0.52
6292 M 47.34129328598402 24.047550500418453 34.3601174240347 M 0.0 **** -1.04
6293 O 44.77774000082146 36.44635525812362 30.271885629308628 O 0.0 **** 0.0
6294 H 44.59390910796747 36.187798150926966 29.368788697708403 H 0.0 **** 0.52
6295 H 45.62214916351136 36.89479066553659 30.225980585426036 H 0.0 **** 0.52
6296 M 44.86230246025255 36.47066231518926 30.150401348671988 M 0.0 **** -1.04
6297 O 8.227540881112656 38.80746575622979 37.21320829746387 O 0.0 **** 0.0
6298 H 8.191413307465927 39.21589472509599 36.34827550151889 H 0.0 **** 0.52
6299 H 7.675138447701366 38.02971066319077 37.134609216444616 H 0.0 **** 0.52
6300 M 8.152201449323602 38.76018731197264 37.09242461130831 M 0.0 **** -1.04
6301 O 9.60062060398107 40.31050081684777 17.658727407155936 O 0.0 **** 0.0
6302 H 9.05680223893438 40.60466436551468 16.928003434702642 H 0.0 **** 0.52
6303 H 9.069728580552361 39.64859008661847 18.10173539744208 H 0.0 **** 0.52
6304 M 9.463044485705842 40.26342476699912 17.621896146018486 M 0.0 **** -1.04
6305 O 4.79456077251298 18.016034347790196 28.907757484356186 O 0.0 **** 0.0
6306 H 4.313674452566541 18.455265630793594 29.609222690508826 H 0.0 **** 0.52
6307 H 5.708299343354114 18.26139160127983 29.053049958612196 H 0.0 **** 0.52
6308 M 4.849971100809881 18.10367072070926 29.016153205040286 M 0.0 **** -1.04
6309 O 42.19476793631557 21.05317767825079 29.767466663652158 O 0.0 **** 0.0
6310 H 42.82278737103899 20.370537119502444 30.003732843781368 H 0.0 **** 0.52
6311 H 42.29830964747796 21.15758910874709 28.82163079721352 H 0.0 **** 0.52
6312 M 42.28841696777095 20.979157569317692 29.67663342769755 M 0.0 **** -1.04
6313 O 13.168095288498666 6.555300933969596 39.88321162546637 O 0.0 **** 0.0
6314 H 13.366070160497314 5.659289118417982 40.15560313009766 H 0.0 **** 0.52
6315 H 13.963037194578185 7.04873978254792 40.08524028468736 H 0.0 **** 0.52
6316 M 13.29520104406006 6.503766446071381 39.94394351911579 M 0.0 **** -1.04
6317 O 11.788372156821612 0.543599731068267 3.2740735165665455 O 0.0 **** 0.0
6318 H 12.290426042368958 1.1355824897931388 2.7139592343269925 H 0.0 **** 0.52
6319 H 12.450483639793884 0.011311965133010915 3.7151039370800802 H 0.0 **** 0.52
6320 M 11.937400564998859 0.5512415198038588 3.2588291518679853 M 0.0 **** -1.04
6321 O 40.28063026396326 0.09044383803305323 1.900052987345589 O 0.0 **** 0.0
6322 H 40.251433173392336 -0.8609778874308205 1.7991859389537481 H 0.0 **** 0.52
6323 H 39.58879626443465 0.41427559507674516 1.3232279627324246 H 0.0 **** 0.52
6324 M 40.18832983975286 0.010104794238976922 1.8132998013705048 M 0.0 **** -1.04
6325 O 8.687367713497745 14.22248494355602 12.838446852768813 O 0.0 **** 0.0
6326 H 8.982091933579989 14.96573489953507 12.312191040558398 H 0.0 **** 0.52
6327 H 8.62646635849371 14.568107195163073 13.728988291601356 H 0.0 **** 0.52
6328 M 8.71729915379798 14.361873833949614 12.885079656656211 M 0.0 **** -1.04
6329 O 43.28744310858543 29.994135489575584 31.912316890432372 O 0.0 **** 0.0
6330 H 43.24864204002859 30.9143624556761 31.651728413824035 H 0.0 **** 0.52
6331 H 43.22796969170768 29.508948193609086 31.08934393932381 H 0.0 **** 0.52
6332 M 43.27486209913932 30.049826328794268 31.773607069347378 M 0.0 **** -1.04
6333 O 44.717837307892566 49.87768941607738 45.95429294444375 O 0.0 **** 0.0
6334 H 45.08587360173632 50.20962780605715 45.13539480551936 H 0.0 **** 0.52
6335 H 44.60571222746318 48.93904518388787 45.80394362797864 H 0.0 **** 0.52
6336 M 44.75059725929624 49.800023128732256 45.83021737724753 M 0.0 **** -1.04
6337 O 4.028161641039504 24.841065717858275 15.168858449011884 O 0.0 **** 0.0
6338 H 4.518322516513502 25.045698962362874 15.965159931720494 H 0.0 **** 0.52
6339 H 3.2981604946587355 25.46019708483427 15.170623690651786 H 0.0 **** 0.52
6340 M 3.9974594993669723 24.946518026672994 15.271021207007943 M 0.0 **** -1.04
6341 O 42.70244579945529 21.694779754249577 17.515810083561284 O 0.0 **** 0.0
6342 H 42.06735335061113 22.41088418431444 17.506817757086512 H 0.0 **** 0.52
6343 H 42.523575442426704 21.225591045507063 18.33073061925407 H 0.0 **** 0.52
6344 M 42.59824840408287 21.726388475992746 17.618979284417748 M 0.0 **** -1.04
6345 O 27.74031084509563 44.06488340839742 14.352583771316732 O 0.0 **** 0.0
6346 H 27.63981200333434 43.991214381936175 13.403530467138843 H 0.0 **** 0.52
6347 H 27.84649184597003 43.162420560409394 14.65344141652575 H 0.0 **** 0.52
6348 M 27.741038045094726 43.93992647653707 14.26960675412998 M 0.0 **** -1.04
6349 O 43.76519670867482 29.186755572171087 23.946087981023553 O 0.0 **** 0.0
6350 H 44.28711992447839 28.601335358236483 23.3973560288332 H 0.0 **** 0.52
6351 H 43.1059290479904 28.618290066190376 24.3441359405528 H 0.0 **** 0.52
6352 M 43.74761505460265 29.039044048177 23.926798898193624 M 0.0 **** -1.04
6353 O 5.84960894525695 45.40823298075507 8.921298994220482 O 0.0 **** 0.0
6354 H 5.315463504429882 44.814542787566424 8.393615221144318 H 0.0 **** 0.52
6355 H 5.304558092615071 46.18728762243158 9.031851974036778 H 0.0 **** 0.52
6356 M 5.711458598882186 45.431961736469255 8.867900992733498 M 0.0 **** -1.04
6357 O 11.56123079386235 41.333408538601944 37.0795399718197 O 0.0 **** 0.0
6358 H 10.873911160668285 41.841963639575816 37.50988009941904 H 0.0 **** 0.52
6359 H 12.193943899727742 41.14932622800634 37.773813952299854 H 0.0 **** 0.52
6360 M 11.554239880617423 41.37494458617618 37.22350459546361 M 0.0 **** -1.04
6361 O 1.6552635978729109 1.3124677421860627 18.625819946932197 O 0.0 **** 0.0
6362 H 0.7832963794749416 1.1098051502519362 18.964687035707268 H 0.0 **** 0.52
6363 H 1.7084659094664931 2.267705464802078 18.656108531407323 H 0.0 **** 0.52
6364 M 1.5504514698887422 1.40880658221562 18.67307732387159 M 0.0 **** -1.04
6365 O 7.158407525102419 24.354758940570406 15.9249866888127 O 0.0 **** 0.0
6366 H 7.705448564631219 23.850071829835528 16.52687274757009 H 0.0 **** 0.52
6367 H 7.769929279865032 24.69216640352805 15.270444706485588 H 0.0 **** 0.52
6368 M 7.306718389588831 24.333344666239483 15.918245588075013 M 0.0 **** -1.04
6369 O 32.94272915295949 7.119176463591302 31.638999698460623 O 0.0 **** 0.0
6370 H 32.5449072922061 6.4902947733729235 32.241058164415975 H 0.0 **** 0.52
6371 H 32.46722686306966 6.998399813368053 30.817088716067083 H 0.0 **** 0.52
6372 M 32.83093313737142 7.02321140900537 31.610855975999893 M 0.0 **** -1.04
6373 O 8.102788573866919 41.63587920671239 23.182942699142032 O 0.0 **** 0.0
6374 H 7.209713681153997 41.687322308835164 23.523529580110427 H 0.0 **** 0.52
6375 H 8.065650114171374 42.09193941428503 22.342194402859338 H 0.0 **** 0.52
6376 M 7.983709654000623 41.70084633127304 23.11891554887906 M 0.0 **** -1.04
6377 O 22.686259839492408 2.972356519187997 38.63975985967509 O 0.0 **** 0.0
6378 H 22.058648051792176 3.5781833454855487 39.033849641834585 H 0.0 **** 0.52
6379 H 23.503096234970954 3.469246502429904 38.59385349092245 H 0.0 **** 0.52
6380 M 22.710482959331372 3.1135186178347496 38.68433175664958 M 0.0 **** -1.04
6381 O 41.383710590920955 13.89203328425446 7.196574865831266 O 0.0 **** 0.0
6382 H 41.49446817239608 13.028144376031968 6.799512779530161 H 0.0 **** 0.52
6383 H 41.187632101305866 13.710359218870234 8.115692050885968 H 0.0 **** 0.52
6384 M 41.37278827341325 13.758187362739374 7.2634043615800366 M 0.0 **** -1.04
6385 O 30.019053168627266 36.193065222390935 37.50160351526666 O 0.0 **** 0.0
6386 H 30.524073844809628 36.530116531179274 38.24158962962076 H 0.0 **** 0.52
6387 H 30.6562568922879 35.708105865960675 36.97718533796796 H 0.0 **** 0.52
6388 M 30.165272232908052 36.17413109670035 37.52919910286997 M 0.0 **** -1.04
6389 O 42.749384954294094 7.471387032910428 10.034441919517102 O 0.0 **** 0.0
6390 H 43.06898022425485 6.921841419894577 10.75004445099594 H 0.0 **** 0.52
6391 H 42.70017447317127 8.350300399389816 10.410366112072872 H 0.0 **** 0.52
6392 M 42.78399726065755 7.513550028106465 10.174170809959652 M 0.0 **** -1.04
6393 O 34.89984267160701 20.609606004821845 22.404022788301663 O 0.0 **** 0.0
6394 H 34.968778396832946 21.546358055888344 22.219708714219845 H 0.0 **** 0.52
6395 H 33.963677663401334 20.459040043457467 22.534997665156126 H 0.0 **** 0.52
6396 M 34.78882602911355 20.710247717555088 22.397194985243075 M 0.0 **** -1.04
6397 O 43.13759795603699 8.570651393533069 28.38065628575166 O 0.0 **** 0.0
6398 H 42.59618489475836 7.808078178717963 28.176736575872187 H 0.0 **** 0.52
6399 H 44.03707947302684 8.247884417996062 28.32602797093967 H 0.0 **** 0.52
6400 M 43.18343540912382 8.431714664242207 28.347558504655822 M 0.0 **** -1.04
6401 O 8.787082199299313 30.436899074017994 33.83429654215905 O 0.0 **** 0.0
6402 H 9.642953954216557 30.370055525069702 33.410922728954425 H 0.0 **** 0.52
6403 H 8.394816737334741 29.571205457872672 33.72057914069604 H 0.0 **** 0.52
6404 M 8.846430344893045 30.317522421767723 33.76554189380642 M 0.0 **** -1.04
6405 O 14.465299082333885 24.45522655471945 21.2312577359194 O 0.0 **** 0.0
6406 H 14.609915785452543 23.773274493389863 21.88719692612065 H 0.0 **** 0.52
6407 H 14.813812881568282 24.085650446580605 20.419975061931098 H 0.0 **** 0.52
6408 M 14.528426130608423 24.320617957607766 21.21137221129017 M 0.0 **** -1.04
6409 O 6.788607728466606 20.591764124273183 41.27051171388052 O 0.0 **** 0.0
6410 H 6.2990408210971465 19.990978283581285 41.83230325602119 H 0.0 **** 0.52
6411 H 7.555932941751684 20.833739595257086 41.78905743361706 H 0.0 **** 0.52
6412 M 6.824164953978637 20.54583209588189 41.408808540347266 M 0.0 **** -1.04
6413 O 47.76222484577603 27.68940872304814 43.593384437771306 O 0.0 **** 0.0
6414 H 47.14154229073913 27.203965088928264 43.04994424617524 H 0.0 **** 0.52
6415 H 48.40069795836127 28.040912805628558 42.97288028157279 H 0.0 **** 0.52
6416 M 47.764502506448224 27.67226373780059 43.44438487105142 M 0.0 **** -1.04
6417 O 3.375508083902758 17.053946090174023 34.632029977379645 O 0.0 **** 0.0
6418 H 3.940184604594488 17.151408855535692 35.39875668633197 H 0.0 **** 0.52
6419 H 3.142741126246456 17.950287107868988 34.38991017903321 H 0.0 **** 0.52
6420 M 3.417996919013819 17.181165466486974 34.69918596930483 M 0.0 **** -1.04
6421 O 41.278593038000906 30.29709423502245 20.45573260321241 O 0.0 **** 0.0
6422 H 41.194278907189066 31.20683348678194 20.170259540534616 H 0.0 **** 0.52
6423 H 40.421389295228586 30.080168749557544 20.822302439037827 H 0.0 **** 0.52
6424 M 41.1580671852011 30.38578388396097 20.46611345481854 M 0.0 **** -1.04
6425 O 41.04608599941614 27.243858509438137 48.62082163116075 O 0.0 **** 0.0
6426 H 40.18965748309021 27.163608694110263 48.200917570785606 H 0.0 **** 0.52
6427 H 41.61060062631239 27.618852673517743 47.944854671837035 H 0.0 **** 0.52
6428 M 41.00871745841559 27.281588608331397 48.48053647440497 M 0.0 **** -1.04
6429 O 9.387831924929666 10.954154891242759 22.58337329257745 O 0.0 **** 0.0
6430 H 8.761877506970885 10.903217860396573 21.86100544331883 H 0.0 **** 0.52
6431 H 9.555874429638399 11.890464689106196 22.689742923850815 H 0.0 **** 0.52
6432 M 9.329213291191664 11.067494078647684 22.50451771087849 M 0.0 **** -1.04
6433 O 24.58123383552216 14.97113477670948 49.12348188656839 O 0.0 **** 0.0
6434 H 24.465781089586503 15.78743827195638 48.637119047358084 H 0.0 **** 0.52
6435 H 23.690833746014288 14.654677021806549 49.27602647530646 H 0.0 **** 0.52
6436 M 24.452472335376292 15.035121005473556 49.08074950429524 M 0.0 **** -1.04
6437 O 12.377721494445098 41.170980474168616 49.11731139342418 O 0.0 **** 0.0
6438 H 12.205031482480308 42.064552169108445 48.820768303470956 H 0.0 **** 0.52
6439 H 13.257697327540768 41.208346289691356 49.4921102882357 H 0.0 **** 0.52
6440 M 12.468262689012462 41.290152653330715 49.12732861449943 M 0.0 **** -1.04
6441 O 5.891619562939153 9.095064302299072 1.1953699996494753 O 0.0 **** 0.0
6442 H 5.558153849981874 8.361222686720735 0.6791274903784876 H 0.0 **** 0.52
6443 H 6.421101386326495 9.601061968177424 0.5790550102250608 H 0.0 **** 0.52
6444 M 5.916712350625977 9.065897833761065 1.050388731120989 M 0.0 **** -1.04
6445 O 34.119487327006134 3.377084071918803 22.531404974098173 O 0.0 **** 0.0
6446 H 33.70964814693306 2.6598679654004282 22.047814026546877 H 0.0 **** 0.52
6447 H 34.47766240564293 2.963222650041475 23.31668020895479 H 0.0 **** 0.52
6448 M 34.112873610220106 3.2322917049349202 22.570024592784502 M 0.0 **** -1.04
6449 O 13.705687888815918 40.64971103656898 21.580122115223986 O 0.0 **** 0.0
6450 H 13.182759924554938 40.935968909584304 20.831235611606886 H 0.0 **** 0.52
6451 H 14.03877137469946 39.78925159561802 21.32537848689296 H 0.0 **** 0.52
6452 M 13.681385476438905 40.57620581945851 21.4516439498759 M 0.0 **** -1.04
6453 O 17.701736622713867 45.81207207368125 49.74869147475511 O 0.0 **** 0.0
6454 H 17.997115790258086 45.819768518021796 48.83824014424154 H 0.0 **** 0.52
6455 H 18.344177735329453 46.347816509640296 50.213960662980284 H 0.0 **** 0.52
6456 M 17.821789741490235 45.88163960031905 49.691702627850184 M 0.0 **** -1.04
6457 O 20.126170945683015 46.779058929999835 43.4762782011205 O 0.0 **** 0.0
6458 H 19.972865153012048 47.1108539178118 44.36094653604897 H 0.0 **** 0.52
6459 H 19.46871464288697 46.09317128069458 43.359922290750646 H 0.0 **** 0.52
6460 M 20.022382769104638 46.73373058406504 43.57463223373404 M 0.0 **** -1.04
6461 O 9.578575678308823 29.951972197361446 0.041112738877611785 O 0.0 **** 0.0
6462 H 8.860760725568255 29.465622483934098 0.4466181631199963 H 0.0 **** 0.52
6463 H 10.11390082048991 30.248034423881364 0.7773207556328474 H 0.0 **** 0.52
6464 M 9.555215090009938 29.927613209908337 0.18726613356486735 M 0.0 **** -1.04
6465 O 46.44109488561385 19.02094108507834 21.698252478021725 O 0.0 **** 0.0
6466 H 46.032499833571976 18.86683819780995 22.550033755835184 H 0.0 **** 0.52
6467 H 47.34617236408423 18.73016677963472 21.810115571383896 H 0.0 **** 0.52
6468 M 46.50465021075854 18.963991415437064 21.821611173197642 M 0.0 **** -1.04
6469 O 22.034467932732397 49.4768562114711 6.089480835293912 O 0.0 **** 0.0
6470 H 22.65353815321126 49.30029558610365 5.38109704908554 H 0.0 **** 0.52
6471 H 21.195537766085668 49.15329301963287 5.761255646418441 H 0.0 **** 0.52
6472 M 22.006323622450072 49.4128342093551 5.956782563079145 M 0.0 **** -1.04
6473 O 8.721411945660408 17.303045700408887 45.93755324361182 O 0.0 **** 0.0
6474 H 8.41185263650156 18.094260301435 46.37843913470032 H 0.0 **** 0.52
6475 H 8.875686619964306 16.678243421597642 46.64610885944901 H 0.0 **** 0.52
6476 M 8.701533649442956 17.32434811248912 46.08469603692855 M 0.0 **** -1.04
6477 O 41.26461407592232 29.423692201656294 0.25004449363567227 O 0.0 **** 0.0
6478 H 41.25843684611137 28.805719891870808 -0.48091469614163174 H 0.0 **** 0.52
6479 H 41.625135135716505 28.924767986549682 0.9830709426426392 H 0.0 **** 0.52
6480 M 41.30997469202728 29.280715907091974 0.25030873831727846 M 0.0 **** -1.04
6481 O 41.25165671824487 23.800078207909976 12.191551102863023 O 0.0 **** 0.0
6482 H 40.43280467295339 24.240979539327384 12.418081414462904 H 0.0 **** 0.52
6483 H 41.92942753097155 24.45779191113398 12.347332032637489 H 0.0 **** 0.52
6484 M 41.233596421844645 23.940714454804777 12.240491490011927 M 0.0 **** -1.04
6485 O 41.887369597837235 26.224196745902432 6.442776400076434 O 0.0 **** 0.0
6486 H 42.38635971645853 26.907775979533994 5.995610351425491 H 0.0 **** 0.52
6487 H 41.37107526011986 25.811943930041345 5.750160263171085 H 0.0 **** 0.52
6488 M 41.885154425547356 26.258929539328218 6.296869485786634 M 0.0 **** -1.04
6489 O 32.386128006593424 35.0388006423549 26.70320599322118 O 0.0 **** 0.0
6490 H 32.02261097411077 35.33064641161045 25.867197777742827 H 0.0 **** 0.52
6491 H 31.776911071143328 35.37530212644858 27.36035848153435 H 0.0 **** 0.52
6492 M 32.26160613603215 35.11923667939679 26.680310384823322 M 0.0 **** -1.04
6493 O 45.57551301717897 27.986990085870634 39.046483507520804 O 0.0 **** 0.0
6494 H 44.78027959917243 27.479667059586514 38.88383064341453 H 0.0 **** 0.52
6495 H 45.25918916282329 28.843863170577137 39.332727406349335 H 0.0 **** 0.52
6496 M 45.433220132561836 28.03173652934535 39.06230471523975 M 0.0 **** -1.04
6497 O 27.677939046267586 23.34427868016265 42.504521973831196 O 0.0 **** 0.0
6498 H 28.315934162974962 22.647705301650745 42.349678314226225 H 0.0 **** 0.52
6499 H 27.034832407904084 23.240953630062798 41.803119735126856 H 0.0 **** 0.52
6500 M 27.67728505981585 23.241881910573294 42.394911568146426 M 0.0 **** -1.04
6501 O 27.762214691260095 41.79116189106665 43.24912652539518 O 0.0 **** 0.0
6502 H 27.878403104432262 40.89036882400006 43.55128524610639 H 0.0 **** 0.52
6503 H 28.493781074604325 41.939552603015045 42.64994481748546 H 0.0 **** 0.52
6504 M 27.870737788833207 41.69484517662778 43.21110341129567 M 0.0 **** -1.04
6505 O 41.11799273936276 39.51760942677742 7.6698658877440025 O 0.0 **** 0.0
6506 H 41.91423982954267 40.047501217574215 7.631982964726525 H 0.0 **** 0.52
6507 H 40.40575748119674 40.14576834014979 7.550010465467196 H 0.0 **** 0.52
6508 M 41.128747216274725 39.66585410944649 7.649673794818803 M 0.0 **** -1.04
6509 O 1.2580447571898432 2.9430146966031145 1.7259052018426593 O 0.0 **** 0.0
6510 H 1.9902547076501307 3.5279841757663846 1.9206047866479687 H 0.0 **** 0.52
6511 H 0.8415139863248768 3.3282768742638993 0.9549932422028578 H 0.0 **** 0.52
6512 M 1.2984558653806602 3.0672168532209128 1.652142765607977 M 0.0 **** -1.04
6513 O 28.04209923188547 39.528077042376225 4.139580296909713 O 0.0 **** 0.0
6514 H 28.732841026164508 39.441598661063985 3.4825975731759007 H 0.0 **** 0.52
6515 H 28.402510369744554 40.13227977466403 4.788635465678884 H 0.0 **** 0.52
6516 M 28.176659900321166 39.594352433584575 4.138565906777542 M 0.0 **** -1.04
6517 O 36.049680611144844 43.22495208897242 15.565798530826454 O 0.0 **** 0.0
6518 H 36.311164701766806 43.83465913894587 14.875790494207962 H 0.0 **** 0.52
6519 H 36.22179386669374 42.35815183610731 15.198019168717671 H 0.0 **** 0.52
6520 M 36.10518625411015 43.19204072276203 15.430389003029596 M 0.0 **** -1.04
6521 O 3.813622539209071 28.94762677688996 12.243879807443943 O 0.0 **** 0.0
6522 H 4.451396209647591 29.65745947210408 12.168977810226869 H 0.0 **** 0.52
6523 H 3.2779092333316555 29.021999140349664 11.454127446228108 H 0.0 **** 0.52
6524 M 3.82668711175517 29.04801548671108 12.133193273729798 M 0.0 **** -1.04
6525 O 47.59401866445474 7.807757000513283 16.843080987806513 O 0.0 **** 0.0
6526 H 47.677679331720846 7.330842113494806 17.668781129930345 H 0.0 **** 0.52
6527 H 48.109697481826764 8.603739546154097 16.972371270811546 H 0.0 **** 0.52
6528 M 47.67074153111541 7.848601181670722 16.965331876097608 M 0.0 **** -1.04
6529 O 12.609903346739728 43.59447022601472 35.76576042729867 O 0.0 **** 0.0
6530 H 12.536176652634047 42.8318340933381 36.33950182551315 H 0.0 **** 0.52
6531 H 13.486466871293125 43.52624585063759 35.38732778532294 H 0.0 **** 0.52
6532 M 12.712676380304607 43.48810923164919 35.790762096772234 M 0.0 **** -1.04
6533 O 33.170566815418134 49.78982221079925 40.84824853731104 O 0.0 **** 0.0
6534 H 33.39569480281743 50.333543247169 41.60317487201704 H 0.0 **** 0.52
6535 H 32.214694316469206 49.81955025601861 40.807597186599885 H 0.0 **** 0.52
6536 M 33.07702286948804 49.863231136493404 40.93968507802241 M 0.0 **** -1.04
6537 O 29.864755236189005 32.226017108643454 17.021037818254428 O 0.0 **** 0.0
6538 H 30.819934573491256 32.288118044692375 17.023008093935275 H 0.0 **** 0.52
6539 H 29.612345627187565 32.437764534909356 16.12232728883015 H 0.0 **** 0.52
6540 M 29.954718434472216 32.26107350326842 16.906243378216857 M 0.0 **** -1.04
6541 O 18.4579180457961 3.4743635723810185 41.02513365251966 O 0.0 **** 0.0
6542 H 17.85129465265768 3.8060192773670054 41.687130859185494 H 0.0 **** 0.52
6543 H 18.29515112072701 2.5314040137517457 41.001390559648044 H 0.0 **** 0.52
6544 M 18.35942676766975 3.396109081847069 41.10683832266958 M 0.0 **** -1.04
6545 O 17.34899029168043 15.180196157929657 2.015854203303961 O 0.0 **** 0.0
6546 H 17.43223675227405 14.230155882533769 2.097839260782573 H 0.0 **** 0.52
6547 H 16.521056418093 15.309524285418238 1.553221953429133 H 0.0 **** 0.52
6548 M 17.25366119134026 15.075135318262316 1.967126821035734 M 0.0 **** -1.04
6549 O 34.0680522131834 24.91646739663978 49.042439353722294 O 0.0 **** 0.0
6550 H 34.0772783435791 25.55620236787417 48.3304821903293 H 0.0 **** 0.52
6551 H 34.93234062943012 24.506536562050027 49.00794945003684 H 0.0 **** 0.52
6552 M 34.1798726461083 24.94588500041731 48.946884636651525 M 0.0 **** -1.04
6553 O 40.16069980824228 47.36257071180588 9.547377452838028 O 0.0 **** 0.0
6554 H 39.703980479762585 46.68469241804329 9.049264166651923 H 0.0 **** 0.52
6555 H 40.43429383847069 48.00104617088969 8.888799582898848 H 0.0 **** 0.52
6556 M 40.13725717618579 47.357527212826916 9.399306433271988 M 0.0 **** -1.04
6557 O 44.63948676608243 11.268386883544846 48.903503461155935 O 0.0 **** 0.0
6558 H 43.99318504605347 11.889226203053578 48.56722887259063 H 0.0 **** 0.52
6559 H 45.258393391314094 11.808700890638656 49.39466747530681 H 0.0 **** 0.52
6560 M 44.63597995324957 11.417028995906742 48.92333145342327 M 0.0 **** -1.04
6561 O 36.0887148077317 30.034327016275473 14.913177735527142 O 0.0 **** 0.0
6562 H 35.85229073132298 30.5439777683239 14.13820115311389 H 0.0 **** 0.52
6563 H 35.253088807708465 29.71785057651219 15.256398739097856 H 0.0 **** 0.52
6564 M 35.95147852832943 30.05905607164819 14.857907745530754 M 0.0 **** -1.04
6565 O 41.54965673612416 5.2876744259566095 40.518107945146 O 0.0 **** 0.0
6566 H 41.99847574100907 5.167644230490069 39.68121900428816 H 0.0 **** 0.52
6567 H 40.67068543680001 5.581751991794121 40.27903281319531 H 0.0 **** 0.52
6568 M 41.494592186272435 5.3099548830422165 40.38037110535831 M 0.0 **** -1.04
6569 O 37.7958806757909 30.25367284319706 1.9674314791356977 O 0.0 **** 0.0
6570 H 37.633508500125 30.720313608626313 1.1476075548549787 H 0.0 **** 0.52
6571 H 37.95498320350266 29.348244359817542 1.7007579618252677 H 0.0 **** 0.52
6572 M 37.79546266038879 30.19750221177683 1.8283458501693204 M 0.0 **** -1.04
6573 O 19.439141301520536 7.133625883356731 38.98594948714624 O 0.0 **** 0.0
6574 H 19.95090250107252 7.233976049177991 38.18329124418682 H 0.0 **** 0.52
6575 H 18.55107476777416 7.390775770847668 38.73807957714091 H 0.0 **** 0.52
6576 M 19.39096979794285 7.179390575182737 38.85146829080588 M 0.0 **** -1.04
6577 O 25.629799083735676 47.59270499558453 49.04949423575363 O 0.0 **** 0.0
6578 H 25.735530041717197 46.909450608710166 48.38751803461406 H 0.0 **** 0.52
6579 H 25.0588595841692 48.24060361496377 48.63659670500877 H 0.0 **** 0.52
6580 M 25.57024647564988 47.588178912679886 48.9118964551439 M 0.0 **** -1.04
6581 O 40.92854075381665 34.274915783583154 47.78505791262012 O 0.0 **** 0.0
6582 H 41.24275465548144 33.95849031305406 48.63203677539446 H 0.0 **** 0.52
6583 H 41.07781416328729 35.22003160472069 47.81154849254998 H 0.0 **** 0.52
6584 M 40.98787258009228 34.35539567433456 47.896873057665196 M 0.0 **** -1.04
6585 O 29.90820118563168 44.702838440054116 17.442911438535575 O 0.0 **** 0.0
6586 H 30.27223302700791 45.07531507911372 16.639810765219792 H 0.0 **** 0.52
6587 H 30.52133322106054 44.966366904867 18.129096935583863 H 0.0 **** 0.52
6588 M 30.03329029539053 44.784255047357405 17.427945050963274 M 0.0 **** -1.04
6589 O 37.59167430965362 36.89488410531691 32.41134169206453 O 0.0 **** 0.0
6590 H 36.94821646885905 36.19656890877112 32.53195258223048 H 0.0 **** 0.52
6591 H 37.36014758346686 37.29218500345804 31.571832543200195 H 0.0 **** 0.52
6592 M 37.47966488335028 36.85635047145149 32.319314340579716 M 0.0 **** -1.04
6593 O 7.448754604191958 10.748746797229035 49.60446107495325 O 0.0 **** 0.0
6594 H 7.000665284429195 11.263169388212406 48.93303373740893 H 0.0 **** 0.52
6595 H 8.2377381257332 10.42354554615405 49.17089466428241 H 0.0 **** 0.52
6596 M 7.4923936194149565 10.772969382653333 49.463007436941574 M 0.0 **** -1.04
6597 O 35.38418661040912 0.281005201385085 0.18357147085774272 O 0.0 **** 0.0
6598 H 35.01478078438995 0.5253504096596586 -0.6649934912825941 H 0.0 **** 0.52
6599 H 34.77515601235577 -0.3701175254312048 0.5319225502058629 H 0.0 **** 0.52
6600 M 35.25893467224789 0.22893279819309242 0.11953833210395004 M 0.0 **** -1.04
6601 O 38.10782440269534 4.869440247672387 13.658041350414623 O 0.0 **** 0.0
6602 H 39.02023809095322 4.7087471719109 13.417402498995727 H 0.0 **** 0.52
6603 H 38.05607359338006 4.622446130102041 14.58137467400156 H 0.0 **** 0.52
6604 M 38.218000000585 4.817251121671148 13.74543570408171 M 0.0 **** -1.04
6605 O 11.1357334920338 32.574512650177134 42.83529891316384 O 0.0 **** 0.0
6606 H 10.602007291361765 31.81119203203709 42.61460288012355 H 0.0 **** 0.52
6607 H 11.229055656301348 32.5350093650376 43.787117009703735 H 0.0 **** 0.52
6608 M 11.07935589804056 32.47174107936889 42.92889171853982 M 0.0 **** -1.04
6609 O 44.96354587036326 21.949596873751613 46.372229455140136 O 0.0 **** 0.0
6610 H 44.729552713967905 21.95371145378333 45.44408236529203 H 0.0 **** 0.52
6611 H 45.793779635083425 21.474582878367517 46.40831694294471 H 0.0 **** 0.52
6612 M 45.03987247993527 21.88931557323046 46.258034600397465 M 0.0 **** -1.04
6613 O 27.85325167587766 23.96513283469092 37.5876841497285 O 0.0 **** 0.0
6614 H 28.70991737313347 23.697486834977013 37.920429936988654 H 0.0 **** 0.52
6615 H 27.964076123567608 24.886500142528504 37.353100086059726 H 0.0 **** 0.52
6616 M 27.977102399514088 24.048817625718172 37.60025024547994 M 0.0 **** -1.04
6617 O 33.9552192048254 6.421446393615689 38.581388727889966 O 0.0 **** 0.0
6618 H 33.307710427542446 7.05802788549439 38.88424882334691 H 0.0 **** 0.52
6619 H 33.51841239408192 5.5743067596741795 38.66961303335462 H 0.0 **** 0.52
6620 M 33.8164133731793 6.394491957486601 38.63145303208968 M 0.0 **** -1.04
6621 O 2.7454101200789354 18.482411199766034 11.112470344696831 O 0.0 **** 0.0
6622 H 3.5785314520628067 18.436481371356432 10.643399412989986 H 0.0 **** 0.52
6623 H 2.2780700372935723 19.20938347303839 10.700970893161312 H 0.0 **** 0.52
6624 M 2.7922349672743287 18.569592804261287 10.99974697253404 M 0.0 **** -1.04
6625 O 25.335256912618224 33.71049883808289 49.676200119005635 O 0.0 **** 0.0
6626 H 25.722493332138832 33.43408218914971 48.84561535641766 H 0.0 **** 0.52
6627 H 25.85850806383313 34.4654308780226 49.9454849309978 H 0.0 **** 0.52
6628 M 25.451810728655648 33.77175526635448 49.60434637071427 M 0.0 **** -1.04
6629 O 27.65277757077887 19.894750217596613 33.56525659154116 O 0.0 **** 0.0
6630 H 27.773409147954975 20.43419427225197 34.346714451712494 H 0.0 **** 0.52
6631 H 28.54136901279902 19.715721936692958 33.25771105157707 H 0.0 **** 0.52
6632 M 27.781971673766307 19.940888438634893 33.62592315616047 M 0.0 **** -1.04
6633 O 40.03711278069593 49.607634116066144 7.882554581273787 O 0.0 **** 0.0
6634 H 40.878038418041974 50.04761959270634 7.758112087580734 H 0.0 **** 0.52
6635 H 39.571715385242854 50.15412518879171 8.515785130779634 H 0.0 **** 0.52
6636 M 40.085184554175385 49.73391610377291 7.94768547426137 M 0.0 **** -1.04
6637 O 32.76961596564293 46.4628554406573 49.348534276814476 O 0.0 **** 0.0
6638 H 33.147196835189206 47.28171994709427 49.66966345315221 H 0.0 **** 0.52
6639 H 32.494977209297005 45.99881255725479 50.13939837268568 H 0.0 **** 0.52
6640 M 32.78279364890855 46.50827726616326 49.49088316785847 M 0.0 **** -1.04
6641 O 48.80220668163786 4.892692462624687 3.0498578612246363 O 0.0 **** 0.0
6642 H 48.38395134124064 5.361293108964794 2.3275672875465863 H 0.0 **** 0.52
6643 H 48.98938598728725 4.023408182036725 2.6955439333448257 H 0.0 **** 0.52
6644 M 48.77262656439119 4.841399547367303 2.9120393436695564 M 0.0 **** -1.04
6645 O 7.636207900820694 30.613227676970617 5.151534181034894 O 0.0 **** 0.0
6646 H 7.074183076093599 31.22142351732616 4.671477732437085 H 0.0 **** 0.52
6647 H 8.38658803934386 30.473099590877432 4.574019824648449 H 0.0 **** 0.52
6648 M 7.660319946778029 30.67314640804247 5.016151148407163 M 0.0 **** -1.04
6649 O 37.94609906650253 36.23561827931226 46.201228408794904 O 0.0 **** 0.0
6650 H 38.23096758466989 36.357845905782256 47.10684377651441 H 0.0 **** 0.52
6651 H 37.46704574427736 37.03696827789242 45.99010317083959 H 0.0 **** 0.52
6652 M 37.92124104200503 36.353847655723705 46.290131401727905 M 0.0 **** -1.04
6653 O 3.1181393277096183 40.331532756298614 26.973726712626284 O 0.0 **** 0.0
6654 H 2.6260358252191742 41.02406087063355 27.41471082970848 H 0.0 **** 0.52
6655 H 3.840021806892175 40.13300890586572 27.570134844876307 H 0.0 **** 0.52
6656 M 3.1475537712842794 40.394771452227445 27.106526803874083 M 0.0 **** -1.04
6657 O 4.419091800589889 20.2403346033385 6.067060974148666 O 0.0 **** 0.0
6658 H 4.325587223826673 20.092890087011927 5.125920328772708 H 0.0 **** 0.52
6659 H 4.061736272923902 19.449320804498573 6.470574598251401 H 0.0 **** 0.52
6660 M 4.361375820745565 20.12019987838448 5.998238029363993 M 0.0 **** -1.04
6661 O 17.788253135116488 45.08389571923383 40.537074091101466 O 0.0 **** 0.0
6662 H 18.00955755654624 45.059465082296846 41.468017008470824 H 0.0 **** 0.52
6663 H 17.710360931104574 44.163860885801306 40.28468850792836 H 0.0 **** 0.52
6664 M 17.806611278107088 44.96299186008368 40.623937590418095 M 0.0 **** -1.04
6665 O 16.70683217327766 4.009302518552133 13.623945227163844 O 0.0 **** 0.0
6666 H 16.164340132633356 4.067903729907883 12.837500046487001 H 0.0 **** 0.52
6667 H 16.679968397930622 3.0834968886818785 13.865587426630832 H 0.0 **** 0.52
6668 M 16.63394746253627 3.8982894193411397 13.554203624481481 M 0.0 **** -1.04
6669 O 35.57310590129672 29.160316031020216 18.610434066200014 O 0.0 **** 0.0
6670 H 36.102945207171366 28.548159999388687 18.099782010595167 H 0.0 **** 0.52
6671 H 35.86944628611192 30.026149137843845 18.32982192086458 H 0.0 **** 0.52
6672 M 35.67886722371178 29.192789407064254 18.509142721854495 M 0.0 **** -1.04
6673 O 45.0786898813822 41.25151992742207 31.81704359712086 O 0.0 **** 0.0
6674 H 45.752882109246514 41.920754838801734 31.69949027533774 H 0.0 **** 0.52
6675 H 45.54149939423361 40.51082872821507 32.208722398678674 H 0.0 **** 0.52
6676 M 45.22424034873117 41.24237283404148 31.852134842541744 M 0.0 **** -1.04
6677 O 32.31576482968541 48.07876909474391 22.947851065404535 O 0.0 **** 0.0
6678 H 31.581899657705694 47.95313334673359 23.549421595441743 H 0.0 **** 0.52
6679 H 33.092390488193615 48.04509950514375 23.506374284467128 H 0.0 **** 0.52
6680 M 32.321238635102574 48.0583759960668 23.096357589606612 M 0.0 **** -1.04
6681 O 47.88786320440831 44.27237113709755 11.006961910488506 O 0.0 **** 0.0
6682 H 48.778874585099814 44.52314457820427 11.25076764169227 H 0.0 **** 0.52
6683 H 47.67405389057204 44.837657969412675 10.264692080372086 H 0.0 **** 0.52
6684 M 47.97455367887127 44.37683745121415 10.94315234755095 M 0.0 **** -1.04
6685 O 44.56602634083887 44.53812662561574 3.0043747530578204 O 0.0 **** 0.0
6686 H 44.420045281553115 45.26389805332786 2.3976013923135264 H 0.0 **** 0.52
6687 H 45.51820102794168 44.451769493829794 3.0505905289332618 H 0.0 **** 0.52
6688 M 44.66922934294853 44.61997943204999 2.932616141334919 M 0.0 **** -1.04
6689 O 15.687631808951451 21.51323651846357 2.15803225699095 O 0.0 **** 0.0
6690 H 16.354044182987764 20.998461163821602 1.7029161553043153 H 0.0 **** 0.52
6691 H 15.412835603695598 20.958376818320307 2.887995600423217 H 0.0 **** 0.52
6692 M 15.737763733643746 21.376309672459954 2.19321651317388 M 0.0 **** -1.04
6693 O 19.978728466370537 47.10935902448359 40.06135209635809 O 0.0 **** 0.0
6694 H 19.206529911000803 46.60365242280049 39.807976351431805 H 0.0 **** 0.52
6695 H 20.040558504933188 46.99410687266295 41.00957297290636 H 0.0 **** 0.52
6696 M 19.887792331928306 47.029868131046854 40.15030066526905 M 0.0 **** -1.04
6697 O 15.457323862834087 18.270838399838482 14.562762699794982 O 0.0 **** 0.0
6698 H 16.01591203837276 17.644279209220684 14.102728802819453 H 0.0 **** 0.52
6699 H 15.04350411811157 18.780169914623304 13.865938857174397 H 0.0 **** 0.52
6700 M 15.475856009891231 18.255831940673563 14.414670870149397 M 0.0 **** -1.04
6701 O 32.894326965886485 17.901432265977274 7.897131096897089 O 0.0 **** 0.0
6702 H 33.50547696301358 18.574031389273603 8.197690069764763 H 0.0 **** 0.52
6703 H 33.35575834872277 17.075539732225412 8.042767098065806 H 0.0 **** 0.52
6704 M 33.03163070771548 17.881808667069382 7.954249580644959 M 0.0 **** -1.04
6705 O 9.746159592558941 32.630794075515475 21.030941074589034 O 0.0 **** 0.0
6706 H 9.841607619612383 33.14795078243269 20.231148236709814 H 0.0 **** 0.52
6707 H 8.837812859611907 32.32933875204623 21.014835294562957 H 0.0 **** 0.52
6708 M 9.642098849379016 32.658406722500786 20.92649551283891 M 0.0 **** -1.04
6709 O 29.079445222501423 29.35559351313293 1.4913873313969714 O 0.0 **** 0.0
6710 H 29.07634446772784 29.823544804542593 0.6563777092812957 H 0.0 **** 0.52
6711 H 29.546905262479733 28.540669034884672 1.3080640548520102 H 0.0 **** 0.52
6712 M 29.138888830463156 29.311176869499363 1.3610281214122468 M 0.0 **** -1.04
6713 O 35.31892259263178 39.28721601036735 22.997476900297414 O 0.0 **** 0.0
6714 H 35.69953267502164 39.56312269552996 22.163665869093137 H 0.0 **** 0.52
6715 H 35.91121561507415 38.607158120560136 23.318315664266535 H 0.0 **** 0.52
6716 M 35.443465647766836 39.23548017606642 22.931810350876745 M 0.0 **** -1.04
6717 O 16.770472263836115 30.540564103610418 33.862840695031906 O 0.0 **** 0.0
6718 H 17.211118138005126 29.694358505318057 33.94027636837273 H 0.0 **** 0.52
6719 H 16.620816982793414 30.81684116500671 34.76699831109811 H 0.0 **** 0.52
6720 M 16.807722784777845 30.467606268608247 33.98849643038598 M 0.0 **** -1.04
6721 O 46.13274144367493 49.745261329622345 2.009126198536549 O 0.0 **** 0.0
6722 H 47.04492152017997 50.03533470741787 2.0127074384220123 H 0.0 **** 0.52
6723 H 46.04743346237287 49.23151180957919 1.205999069446655 H 0.0 **** 0.52
6724 M 46.23859134607402 49.716627646781625 1.9067742905958838 M 0.0 **** -1.04
6725 O 11.05940838284098 32.53284483041742 49.423845895997125 O 0.0 **** 0.0
6726 H 10.126078759953419 32.74297177795623 49.45502287173846 H 0.0 **** 0.52
6727 H 11.495775343660547 33.383833268452776 49.38346782946303 H 0.0 **** 0.52
6728 M 10.995790650335609 32.66868097756158 49.42266845347154 M 0.0 **** -1.04
6729 O 29.947706629962283 0.48077121466845674 19.68062034078309 O 0.0 **** 0.0
6730 H 30.54802746282381 1.215823537609124 19.555957578284794 H 0.0 **** 0.52
6731 H 30.482612665798587 -0.29618641988336236 19.518010884489005 H 0.0 **** 0.52
6732 M 30.09303039297143 0.4754063533088655 19.643845915152667 M 0.0 **** -1.04
6733 O 2.0941221502825655 20.695416221750286 27.25752759728197 O 0.0 **** 0.0
6734 H 2.191812214841427 20.169369064960545 26.463827809603245 H 0.0 **** 0.52
6735 H 2.044269454613861 20.05377948347053 27.96608034745489 H 0.0 **** 0.52
6736 M 2.100245897203557 20.545937943249886 27.246627586676915 M 0.0 **** -1.04
6737 O 27.600149216508843 43.538349973714816 40.38279405691941 O 0.0 **** 0.0
6738 H 27.57279725775699 43.85553912944351 39.48009131178477 H 0.0 **** 0.52
6739 H 27.34305038924568 44.29429910935295 40.91068526758398 H 0.0 **** 0.52
6740 M 27.56373539882985 43.6757254840083 40.33481377052335 M 0.0 **** -1.04
6741 O 16.362280575998355 21.91419147370749 40.56346791907875 O 0.0 **** 0.0
6742 H 17.287662134464867 22.11901306736084 40.429509079841694 H 0.0 **** 0.52
6743 H 15.967468957029581 22.009512710824723 39.69671211693201 H 0.0 **** 0.52
6744 M 16.430200359239358 21.95261319902818 40.435363833746216 M 0.0 **** -1.04
6745 O 16.833882143100467 37.880394640181066 18.974046034418052 O 0.0 **** 0.0
6746 H 17.14824157125812 38.732765425132186 19.275493740010766 H 0.0 **** 0.52
6747 H 16.515102952328387 38.04246580403122 18.086159742718003 H 0.0 **** 0.52
6748 M 16.833316711228175 38.01025619918362 18.898974533892076 M 0.0 **** -1.04
6749 O 36.06419350147318 30.225526582001 28.490621585745217 O 0.0 **** 0.0
6750 H 35.25024892513294 29.794759185212865 28.229538903537275 H 0.0 **** 0.52
6751 H 36.75143188572219 29.601064864132933 28.258285771652154 H 0.0 **** 0.52
6752 M 36.04797346564262 30.090444289428802 28.427457965574277 M 0.0 **** -1.04
6753 O 30.511682487822846 0.9523733526640401 40.733319045417375 O 0.0 **** 0.0
6754 H 30.057388166568675 1.7947022209382926 40.71522942501341 H 0.0 **** 0.52
6755 H 29.981230790027254 0.40602135005849227 41.31327585119174 H 0.0 **** 0.52
6756 M 30.385622915263838 0.9902625053217168 40.80524534681075 M 0.0 **** -1.04
6757 O 5.678256516486407 38.207033118880716 10.571145953429788 O 0.0 **** 0.0
6758 H 5.203083339554922 37.634565785984734 11.173408541974206 H 0.0 **** 0.52
6759 H 5.045166836235154 38.40901260431823 9.882211431003169 H 0.0 **** 0.52
6760 M 5.53638559524839 38.15960646713871 10.560051218209715 M 0.0 **** -1.04
6761 O 45.786398806555056 43.13093923331484 9.057452397852028 O 0.0 **** 0.0
6762 H 45.0263202922345 42.85403209210613 9.56914792028276 H 0.0 **** 0.52
6763 H 46.506991044200674 43.14650955138014 9.68732014814333 H 0.0 **** 0.52
6764 M 45.781344023620385 43.09748530571994 9.203586926499362 M 0.0 **** -1.04
6765 O 18.896111103789536 5.899682412994629 12.951508380767045 O 0.0 **** 0.0
6766 H 18.56332125949302 5.009797342885406 13.068058504861142 H 0.0 **** 0.52
6767 H 19.82507253760102 5.839605675677461 13.174330125463939 H 0.0 **** 0.52
6768 M 18.972428368356262 5.778076029563437 12.9949521610909 M 0.0 **** -1.04
6769 O 44.56163000514777 7.5466193020551415 17.692851922910435 O 0.0 **** 0.0
6770 H 45.021225162459935 7.288094480144086 16.893999130613906 H 0.0 **** 0.52
6771 H 43.6704556987175 7.218117372006816 17.574012818858105 H 0.0 **** 0.52
6772 M 44.50638215669359 7.471472773919624 17.575376001188747 M 0.0 **** -1.04
6773 O 34.90059008038754 30.325159338370568 0.8865539438965158 O 0.0 **** 0.0
6774 H 35.65901231659866 29.88771302587637 1.273418187387648 H 0.0 **** 0.52
6775 H 35.249881135702424 30.77604838050265 0.11783795451263046 H 0.0 **** 0.52
6776 M 35.042391198949545 30.32688060254335 0.8376719481394517 M 0.0 **** -1.04
6777 O 35.43952817039689 1.5966054612349465 47.15235045955131 O 0.0 **** 0.0
6778 H 34.573170484423706 1.1896016001332643 47.15098847960098 H 0.0 **** 0.52
6779 H 35.353585423561285 2.341967219576496 47.74672269013936 H 0.0 **** 0.52
6780 M 35.31762193533754 1.639919951018854 47.22826338397404 M 0.0 **** -1.04
6781 O 2.770782363513419 4.106986608653075 9.14118160082569 O 0.0 **** 0.0
6782 H 1.917126159973023 4.463693708032373 8.895700776972504 H 0.0 **** 0.52
6783 H 2.714265435077671 3.9794353102488835 10.088159120937348 H 0.0 **** 0.52
6784 M 2.6542691980897786 4.136321239114994 9.23098235476814 M 0.0 **** -1.04
6785 O 23.318196958790907 44.43703885396322 8.176111376034573 O 0.0 **** 0.0
6786 H 23.666396284620273 44.59308232201726 9.053970691641354 H 0.0 **** 0.52
6787 H 23.143490588992673 45.31152340131315 7.828285256917475 H 0.0 **** 0.52
6788 M 23.340406197945722 44.56895953688551 8.243963025052718 M 0.0 **** -1.04
6789 O 29.724963407111865 10.648229080601455 42.69060750237578 O 0.0 **** 0.0
6790 H 29.01746617460238 10.078800446070169 42.38823982590859 H 0.0 **** 0.52
6791 H 30.133174293904663 10.163521178243398 43.40799995528451 H 0.0 **** 0.52
6792 M 29.68665099965942 10.513286709565012 42.74373626439088 M 0.0 **** -1.04
6793 O 39.76474953916665 43.118334594187644 32.73508294478697 O 0.0 **** 0.0
6794 H 40.39947813011479 42.458867566466864 32.45499137234408 H 0.0 **** 0.52
6795 H 39.284574509990854 43.34300917824534 31.938099654396922 H 0.0 **** 0.52
6796 M 39.78453443315823 43.06267597159926 32.59720377260234 M 0.0 **** -1.04
6797 O 11.030486341760591 8.999670217572941 23.467492782974613 O 0.0 **** 0.0
6798 H 10.421871923712713 9.66632782911797 23.14908183279464 H 0.0 **** 0.52
6799 H 10.73850256868499 8.189215347117967 23.05019474651083 H 0.0 **** 0.52
6800 M 10.915198393721045 8.98126254742445 23.373312987357192 M 0.0 **** -1.04
6801 O 32.7943230796057 3.726952495907163 28.786462789214422 O 0.0 **** 0.0
6802 H 33.643745042631856 4.14905294983388 28.91507640017642 H 0.0 **** 0.52
6803 H 32.17066884046965 4.4516590583478575 28.740811824108913 H 0.0 **** 0.52
6804 M 32.82322392298556 3.873758321933579 28.7970830162652 M 0.0 **** -1.04
6805 O 40.14967024023061 49.08946780309801 13.763263092691654 O 0.0 **** 0.0
6806 H 40.446630377144636 49.75091362918461 13.138336181858879 H 0.0 **** 0.52
6807 H 40.222678374229254 48.26126388307631 13.288946153997582 H 0.0 **** 0.52
6808 M 40.19703063518556 49.06812143077847 13.622546647524372 M 0.0 **** -1.04
6809 O 41.670735144316325 29.070290940851855 33.829278334471155 O 0.0 **** 0.0
6810 H 41.672097772284005 29.7092694384966 34.54197190008545 H 0.0 **** 0.52
6811 H 42.25416606014781 29.445327093920813 33.16959365634105 H 0.0 **** 0.52
6812 M 41.745595960653816 29.200097783247042 33.83606473069343 M 0.0 **** -1.04
6813 O 35.96554180776083 23.96841300554513 18.63792737124514 O 0.0 **** 0.0
6814 H 35.73033535324378 23.499447678992368 19.43853901168108 H 0.0 **** 0.52
6815 H 35.73092088488065 23.36797345885293 17.9303591036662 H 0.0 **** 0.52
6816 M 35.90539785668004 23.831515853159576 18.64983863159453 M 0.0 **** -1.04
6817 O 18.832964597214875 10.093967993852194 17.366584183758313 O 0.0 **** 0.0
6818 H 18.497094764877275 9.356254504508012 17.87569974356237 H 0.0 **** 0.52
6819 H 18.729966460743544 10.850586886138354 17.94377347316133 H 0.0 **** 0.52
6820 M 18.776784156419016 10.096387833261728 17.505644647543775 M 0.0 **** -1.04
6821 O 48.26733666513668 24.79513503512867 40.56183288132437 O 0.0 **** 0.0
6822 H 47.788368781389664 25.49180646806721 41.01068479142422 H 0.0 **** 0.52
6823 H 47.58525825821184 24.23901842882215 40.18535991961131 H 0.0 **** 0.52
6824 M 48.11870794403044 24.81312791593466 40.571098781961815 M 0.0 **** -1.04
6825 O 37.1551498111285 14.451184307716083 17.834434479559633 O 0.0 **** 0.0
6826 H 36.917570149305796 15.366248856308438 17.98423956364867 H 0.0 **** 0.52
6827 H 37.0014721778745 14.022420419713129 18.67632145305447 H 0.0 **** 0.52
6828 M 37.10506378149932 14.513436939741538 17.961382971523477 M 0.0 **** -1.04
6829 O 20.67013787442295 10.873007825472484 28.018384484555046 O 0.0 **** 0.0
6830 H 21.107394792173324 10.048510133628216 28.23107939122184 H 0.0 **** 0.52
6831 H 21.3769222935245 11.517606812403788 27.984090378407142 H 0.0 **** 0.52
6832 M 20.81658967854348 10.849977902738328 28.041222068330505 M 0.0 **** -1.04
6833 O 13.96717026724039 32.52619677821801 28.97845318366703 O 0.0 **** 0.0
6834 H 13.211129271589321 32.57423285339227 28.393368158838427 H 0.0 **** 0.52
6835 H 14.245449196838806 31.61130980002725 28.936372944558443 H 0.0 **** 0.52
6836 M 13.906010322607257 32.41522855728828 28.89816749965574 M 0.0 **** -1.04
6837 O 6.960493086510283 18.480115283844764 39.56774419724817 O 0.0 **** 0.0
6838 H 7.149962599484908 17.78000955221229 40.19238885046048 H 0.0 **** 0.52
6839 H 6.978846112778328 19.280845885775655 40.091882613744616 H 0.0 **** 0.52
6840 M 6.987096775320879 18.492996176184004 39.71480311042319 M 0.0 **** -1.04
6841 O 35.42796503762218 47.50004912136504 46.60898649346178 O 0.0 **** 0.0
6842 H 36.154030578561354 47.97031730743379 46.19922579667906 H 0.0 **** 0.52
6843 H 34.64511583046814 47.97016080018848 46.32198249120807 H 0.0 **** 0.52
6844 M 35.42069580198208 47.620428887424026 46.51979189854257 M 0.0 **** -1.04
6845 O 42.19859625718349 18.44886594022467 44.95549756950491 O 0.0 **** 0.0
6846 H 41.28029604339542 18.38045154188402 45.21678862368945 H 0.0 **** 0.52
6847 H 42.559256667493614 19.13063496198021 45.52236954611941 H 0.0 **** 0.52
6848 M 42.1272115473246 18.52738281136251 45.06151236365222 M 0.0 **** -1.04
6849 O 48.10793847227967 45.57172675243844 26.1089005578 O 0.0 **** 0.0
6850 H 47.48902938087241 45.27335577401553 26.775350293491755 H 0.0 **** 0.52
6851 H 47.59351471670242 46.14944663918978 25.545130398558626 H 0.0 **** 0.52
6852 M 47.962857520659746 45.60748695134413 26.12204456043574 M 0.0 **** -1.04
6853 O 39.098461031344215 11.624215102802012 4.788181061463195 O 0.0 **** 0.0
6854 H 38.204198971577895 11.32806794909525 4.61841431092568 H 0.0 **** 0.52
6855 H 39.00182783198051 12.31734771168324 5.441218429754189 H 0.0 **** 0.52
6856 M 38.97161410378231 11.675034040777788 4.850045642485955 M 0.0 **** -1.04
6857 O 28.00637578395928 39.31058362419898 44.24373156933272 O 0.0 **** 0.0
6858 H 27.703228159281565 39.08420389885865 45.122982609002726 H 0.0 **** 0.52
6859 H 28.51116550651553 38.548315345146335 43.96024712483816 H 0.0 **** 0.52
6860 M 28.03218870666948 39.18402417981775 44.3199969858076 M 0.0 **** -1.04
6861 O 2.4911785455368687 34.54650693074163 44.17381920391735 O 0.0 **** 0.0
6862 H 1.7577414169074075 34.78037267688849 43.60495579286507 H 0.0 **** 0.52
6863 H 3.1048403707337897 35.27588109874213 44.086295624079185 H 0.0 **** 0.52
6864 M 2.475845350413053 34.66981363142264 44.08979351683617 M 0.0 **** -1.04
6865 O 10.529161196087259 26.397240503518912 33.7154123752008 O 0.0 **** 0.0
6866 H 10.69503828934348 25.933814933928304 32.894468020854625 H 0.0 **** 0.52
6867 H 10.902103870601067 25.830403690467897 34.39057026881977 H 0.0 **** 0.52
6868 M 10.598136530063748 26.26535336187507 33.69674965822668 M 0.0 **** -1.04
6869 O 36.020179584429414 10.924064246202443 7.787247671897809 O 0.0 **** 0.0
6870 H 36.27659545178305 10.272285899381329 8.439678160827981 H 0.0 **** 0.52
6871 H 36.144802840975196 10.483895832912667 6.9464445656618 H 0.0 **** 0.52
6872 M 36.068957330498826 10.784281407088487 7.763133824389897 M 0.0 **** -1.04
6873 O 2.657818567757637 36.26821815800045 38.5462373241315 O 0.0 **** 0.0
6874 H 2.4117742786002765 36.45189445090607 39.45285433459395 H 0.0 **** 0.52
6875 H 2.1895846848538554 35.462092999235374 38.329102492618446 H 0.0 **** 0.52
6876 M 2.5663816098794143 36.188537430968665 38.6344998146848 M 0.0 **** -1.04
6877 O 40.65968358213812 41.47961361545463 22.451028696313468 O 0.0 **** 0.0
6878 H 40.5739649167443 42.04699680646287 23.217160775066013 H 0.0 **** 0.52
6879 H 39.86285023516314 41.63787527940876 21.944828602922136 H 0.0 **** 0.52
6880 M 40.546705587744995 41.57250530804031 22.484302541725167 M 0.0 **** -1.04
6881 O 0.5551597526519245 7.140103931665308 41.549872295493614 O 0.0 **** 0.0
6882 H 0.04247174055792868 7.873635155829675 41.889449668618 H 0.0 **** 0.52
6883 H 0.5409712260306065 7.256786989828228 40.599918663210914 H 0.0 **** 0.52
6884 M 0.48771280543677875 7.248942069683601 41.471736659282804 M 0.0 **** -1.04
6885 O 7.324942622840661 0.4114678284507833 33.6547438692009 O 0.0 **** 0.0
6886 H 7.388601373422977 0.21638430364017935 34.58968603137046 H 0.0 **** 0.52
6887 H 7.782739017171712 -0.3121269885445841 33.22688627827789 H 0.0 **** 0.52
6888 M 7.391695382867092 0.29386523843712653 33.719656284191586 M 0.0 **** -1.04
6889 O 34.10215209056474 47.26566302533648 40.6086317870314 O 0.0 **** 0.0
6890 H 33.65059669982619 48.10080877825172 40.73052530978169 H 0.0 **** 0.52
6891 H 34.50687938395122 47.335624861954166 39.74403361811475 H 0.0 **** 0.52
6892 M 34.09615762802254 47.38152856273016 40.51355612654828 M 0.0 **** -1.04
6893 O 46.671140354991344 49.81317846756529 20.35940945233615 O 0.0 **** 0.0
6894 H 45.91101541261073 49.63605257616698 19.805274597922185 H 0.0 **** 0.52
6895 H 46.814690629117834 48.996748119975024 20.838016069755934 H 0.0 **** 0.52
6896 M 46.59221069439359 49.685990375667224 20.34974137298929 M 0.0 **** -1.04
6897 O 4.657132899169227 8.654626040945038 5.305997060968862 O 0.0 **** 0.0
6898 H 4.724770003018129 9.371826310723048 4.675697087906992 H 0.0 **** 0.52
6899 H 5.542976675560411 8.29558184146988 5.35696753313417 H 0.0 **** 0.52
6900 M 4.779190725956823 8.700475144126317 5.231835621046558 M 0.0 **** -1.04
6901 O 3.1214758418605086 3.1705554341098647 35.39879228318197 O 0.0 **** 0.0
6902 H 3.222663464384034 3.033486408374337 34.4568784439518 H 0.0 **** 0.52
6903 H 3.397058092824942 4.076207348512739 35.540489504418495 H 0.0 **** 0.52
6904 M 3.1697069362245855 3.2689444837645993 35.29635464600943 M 0.0 **** -1.04
6905 O 6.8503086370921835 33.25052352644801 9.573562312881307 O 0.0 **** 0.0
6906 H 7.542592724577773 33.84699584744342 9.858503668525898 H 0.0 **** 0.52
6907 H 7.176367200678783 32.37926512914786 9.799006461596186 H 0.0 **** 0.52
6908 M 6.980669548307212 33.215346557770616 9.638898112446753 M 0.0 **** -1.04
6909 O 46.159094008761 28.326973002069234 47.715037574686214 O 0.0 **** 0.0
6910 H 46.63262916088147 28.838676700740336 47.05917769539316 H 0.0 **** 0.52
6911 H 46.70615962255945 27.554567341474794 47.85764483898481 H 0.0 **** 0.52
6912 M 46.28974362217248 28.293600317487925 47.64933550567571 M 0.0 **** -1.04
6913 O 41.22331202184707 20.5900691080382 34.76989388651738 O 0.0 **** 0.0
6914 H 41.566059170410036 20.99990010105021 35.56411743831819 H 0.0 **** 0.52
6915 H 41.99479086536328 20.226419836605807 34.33537389601068 H 0.0 **** 0.52
6916 M 41.36594693829668 20.595980800870507 34.81593957312621 M 0.0 **** -1.04
6917 O 26.28159622418625 47.11089802672173 35.638079711126636 O 0.0 **** 0.0
6918 H 26.795906453865392 47.157947753625045 36.44399627458355 H 0.0 **** 0.52
6919 H 25.807331088886528 46.28207772987378 35.70408789794084 H 0.0 **** 0.52
6920 M 26.286722541223668 47.010821074381965 35.749697031297075 M 0.0 **** -1.04
6921 O 18.44170756214111 5.475328215830577 8.909124268796376 O 0.0 **** 0.0
6922 H 18.268877532202676 4.603909625859952 9.265477570398453 H 0.0 **** 0.52
6923 H 17.87806719502143 5.535307704368879 8.13779952323619 H 0.0 **** 0.52
6924 M 18.34743055197957 5.371454174558047 8.856002341546613 M 0.0 **** -1.04
6925 O 8.18023324350429 4.942464311973987 28.404607690303123 O 0.0 **** 0.0
6926 H 7.40900193121346 5.170168786641067 28.923820498783357 H 0.0 **** 0.52
6927 H 8.183243722437453 3.98544475637852 28.386351776367675 H 0.0 **** 0.52
6928 M 8.081891730590755 4.849103025215372 28.46873698044935 M 0.0 **** -1.04
6929 O 41.33513390186836 15.153781053485432 47.978762236381066 O 0.0 **** 0.0
6930 H 41.96798166973015 15.65516748725581 47.46461917954838 H 0.0 **** 0.52
6931 H 41.60530801482976 15.286376159774193 48.8874171083741 H 0.0 **** 0.52
6932 M 41.45073295179175 15.234939111139653 48.02926461347981 M 0.0 **** -1.04
6933 O 5.019696281186261 6.343124710248304 0.3388569545472535 O 0.0 **** 0.0
6934 H 5.3626851565022235 6.61786118385416 -0.5115004732398702 H 0.0 **** 0.52
6935 H 5.739179004008385 5.857534913390992 0.7423130041476753 H 0.0 **** 0.52
6936 M 5.155705692851969 6.31613239432518 0.28164785618478305 M 0.0 **** -1.04
6937 O 45.82402915313662 34.823621976377325 21.79691341783406 O 0.0 **** 0.0
6938 H 46.56069310729121 34.988394915429836 21.208353185733138 H 0.0 **** 0.52
6939 H 45.19896095239424 35.52134678830524 21.60019395047461 H 0.0 **** 0.52
6940 M 45.838314988647205 34.93403231479296 21.696387594710263 M 0.0 **** -1.04
6941 O 13.254100914303528 24.116233464659064 8.133787040998385 O 0.0 **** 0.0
6942 H 13.94376482541903 24.152110398209395 8.796587967787884 H 0.0 **** 0.52
6943 H 13.674786082475883 24.428192838071325 7.33257942837532 H 0.0 **** 0.52
6944 M 13.396239074988678 24.16076048212351 8.116069535113894 M 0.0 **** -1.04
6945 O 19.54280840317108 24.494230230490203 30.724576871258677 O 0.0 **** 0.0
6946 H 20.481109623005132 24.306820279149857 30.750970795369945 H 0.0 **** 0.52
6947 H 19.241096493926626 24.335369412531804 31.618983074005573 H 0.0 **** 0.52
6948 M 19.624299408740992 24.449903584110423 30.84245082418271 M 0.0 **** -1.04
6949 O 37.61456623358067 42.413493453925255 48.353761929645415 O 0.0 **** 0.0
6950 H 38.35871642577319 41.820143049969964 48.25176379492059 H 0.0 **** 0.52
6951 H 38.01081400452521 43.27228862132949 48.50102316459558 H 0.0 **** 0.52
6952 M 37.76055150204397 42.44747299291816 48.35955597318495 M 0.0 **** -1.04
6953 O 36.42722702044292 40.73669638216904 3.110488538567857 O 0.0 **** 0.0
6954 H 36.37111635191397 40.152958328988916 3.8670141251725454 H 0.0 **** 0.52
6955 H 36.89139860759276 41.50782474431007 3.4362728135326748 H 0.0 **** 0.52
6956 M 36.47946372418797 40.76068457818528 3.249037661346513 M 0.0 **** -1.04
6957 O 28.018273242275672 11.04177835150687 38.907965611955476 O 0.0 **** 0.0
6958 H 28.752249439147832 11.473987697533893 39.34466122442001 H 0.0 **** 0.52
6959 H 27.463238151313735 11.75995322024285 38.60400793260893 H 0.0 **** 0.52
6960 M 28.041179685212253 11.18904208661695 38.92495828506528 M 0.0 **** -1.04
6961 O 48.00276559234842 49.849258716589915 13.167856942824391 O 0.0 **** 0.0
6962 H 48.03154439518915 50.309336711938386 14.006742317988346 H 0.0 **** 0.52
6963 H 48.91591787081772 49.62951998702232 12.9832068857702 H 0.0 **** 0.52
6964 M 48.123345176453846 49.8800251364257 13.251607464288256 M 0.0 **** -1.04
6965 O 25.96298168008139 49.748656652324044 17.65814794191148 O 0.0 **** 0.0
6966 H 26.29657103411163 49.043046197493005 18.21227886221803 H 0.0 **** 0.52
6967 H 26.52573490195601 49.73232994128286 16.884021824350345 H 0.0 **** 0.52
6968 M 26.07772495069602 49.65623950392325 17.62998652804165 M 0.0 **** -1.04
6969 O 21.23480474138353 9.006205128923249 7.182500540036372 O 0.0 **** 0.0
6970 H 20.82451216869756 8.410428997170897 7.809348804309337 H 0.0 **** 0.52
6971 H 21.417778937864046 9.797972614153153 7.688319204852235 H 0.0 **** 0.52
6972 M 21.205705798971376 9.031294420493822 7.32749664758407 M 0.0 **** -1.04
6973 O 23.754175650110056 10.575344882472017 40.46907780713926 O 0.0 **** 0.0
6974 H 23.55029859802528 10.41570118996895 41.39058564253933 H 0.0 **** 0.52
6975 H 23.105283904447646 11.220448896729529 40.187990419377826 H 0.0 **** 0.52
6976 M 23.645010493520914 10.637490306315797 40.55105973004398 M 0.0 **** -1.04
6977 O 1.1594379427190362 36.48305141636078 28.617661807916377 O 0.0 **** 0.0
6978 H 0.3361781408125264 36.05552518615417 28.381665877121492 H 0.0 **** 0.52
6979 H 1.4307568556111567 36.9380015266058 27.820394780627765 H 0.0 **** 0.52
6980 M 1.0887822921682317 36.48656147738609 28.485391105646926 M 0.0 **** -1.04
6981 O 9.059948491969145 18.298172618227838 19.094378695944137 O 0.0 **** 0.0
6982 H 9.312272700654034 17.597828349127255 18.492649349626028 H 0.0 **** 0.52
6983 H 9.318239442200358 17.976972952688346 19.958291453053256 H 0.0 **** 0.52
6984 M 9.125313689879405 18.167402457944785 19.127941336524028 M 0.0 **** -1.04
6985 O 13.550558489369681 42.28635162406547 45.73476525049834 O 0.0 **** 0.0
6986 H 13.329023831478631 42.19462658430348 46.66144590168161 H 0.0 **** 0.52
6987 H 12.826179067836263 42.79004666295781 45.36355727315567 H 0.0 **** 0.52
6988 M 13.429469289144942 42.339088336493525 45.8058726158848 M 0.0 **** -1.04
6989 O 24.01600847535803 4.634338363832288 18.88225476615908 O 0.0 **** 0.0
6990 H 24.337089281814738 5.09541627438739 18.107307248195937 H 0.0 **** 0.52
6991 H 23.596715812267984 3.8465054110148236 18.53621636123883 H 0.0 **** 0.52
6992 M 24.003436549550862 4.5925090847357435 18.738754163164657 M 0.0 **** -1.04
6993 O 7.3906009237260335 1.279666466932913 25.574665345814562 O 0.0 **** 0.0
6994 H 8.164996456110913 1.8421776088560247 25.585637978482236 H 0.0 **** 0.52
6995 H 7.693125522342754 0.46253883286427433 25.178419564504345 H 0.0 **** 0.52
6996 M 7.528460325521387 1.2470728943077105 25.52534495131946 M 0.0 **** -1.04
6997 O 44.91149159819881 15.04637314372728 20.25444565401771 O 0.0 **** 0.0
6998 H 45.5729488523426 14.403021986546946 20.509009647282344 H 0.0 **** 0.52
6999 H 44.08972349551247 14.693572435035449 20.595706700396285 H 0.0 **** 0.52
7000 M 44.89097015414889 14.918853276190887 20.330719181637868 M 0.0 **** -1.04
7001 O 25.094164464841317 6.360949407462769 5.345387169446462 O 0.0 **** 0.0
7002 H 24.305005530487513 6.050742590886429 4.901283442105449 H 0.0 **** 0.52
7003 H 24.767710661224854 6.8612108469229725 6.09331401338414 H 0.0 **** 0.52
7004 M 24.95135259013273 6.3852792536570036 5.384281087292438 M 0.0 **** -1.04
7005 O 47.052002716398704 48.96318196458823 6.584394281962879 O 0.0 **** 0.0
7006 H 47.32140512235189 49.16099047084673 7.481345874215535 H 0.0 **** 0.52
7007 H 46.22199724210804 49.4272949245638 6.475226822157289 H 0.0 **** 0.52
7008 M 46.980238747965004 49.04791647008651 6.685240186101879 M 0.0 **** -1.04
7009 O 44.165442212572565 11.388948309930186 9.181557429511706 O 0.0 **** 0.0
7010 H 43.31048776928459 11.357536859867423 8.752262829838955 H 0.0 **** 0.52
7011 H 44.61024039346259 10.593450779104472 8.88903749559578 H 0.0 **** 0.52
7012 M 44.1129366260783 11.283092897484622 9.08915634051447 M 0.0 **** -1.04
7013 O 4.515871040006475 44.953503682805504 25.389802008949314 O 0.0 **** 0.0
7014 H 5.324499033674239 45.18820180878396 24.934536441214153 H 0.0 **** 0.52
7015 H 4.590062139592957 44.0111340509012 25.540347266715404 H 0.0 **** 0.52
7016 M 4.628883448023689 44.86291229379416 25.350793429634628 M 0.0 **** -1.04
7017 O 42.70999293080995 24.797539470993 35.84858691584057 O 0.0 **** 0.0
7018 H 42.85898863619404 25.70328341151546 36.11998403990299 H 0.0 **** 0.52
7019 H 41.94571723187601 24.51854485108438 36.352841779505255 H 0.0 **** 0.52
7020 M 42.63122868401171 24.877770912620715 35.94788023172666 M 0.0 **** -1.04
7021 O 13.096327424633513 16.635597558077404 36.19161088049995 O 0.0 **** 0.0
7022 H 13.373438460685756 16.960006443945375 37.0484640796581 H 0.0 **** 0.52
7023 H 13.413024853505457 15.732764183904344 36.1629118030968 H 0.0 **** 0.52
7024 M 13.172342676066801 16.5615512376569 36.297624680930404 M 0.0 **** -1.04
7025 O 33.09065497626889 49.715968651905975 31.06885811288383 O 0.0 **** 0.0
7026 H 32.96323414473894 50.20290428345184 31.88303695419416 H 0.0 **** 0.52
7027 H 32.20426000989897 49.53762503386461 30.754650535727944 H 0.0 **** 0.52
7028 M 32.960873369568944 49.755472282033146 31.132861266135553 M 0.0 **** -1.04
7029 O 36.040264230936984 47.29601393154126 8.090672329693787 O 0.0 **** 0.0
7030 H 35.195345505148666 47.65673751849766 8.359409665737676 H 0.0 **** 0.52
7031 H 36.25522114152545 47.76384793301513 7.283730958771074 H 0.0 **** 0.52
7032 M 35.95962160501338 47.402079978641275 8.021775335348922 M 0.0 **** -1.04
7033 O 42.54006693248117 18.351393494923272 6.929605498263641 O 0.0 **** 0.0
7034 H 43.16411622653713 18.756622327646056 7.5317519805899815 H 0.0 **** 0.52
7035 H 42.57790423253371 17.417746945047938 7.137212706607267 H 0.0 **** 0.52
7036 M 42.62479694167068 18.283749766770192 7.033264889754775 M 0.0 **** -1.04
7037 O 39.03354903613825 6.456555466386274 40.42442657449603 O 0.0 **** 0.0
7038 H 39.59980233406537 6.960330827941711 39.839792187315254 H 0.0 **** 0.52
7039 H 38.179996217167215 6.884916097418505 40.35975209141212 H 0.0 **** 0.52
7040 M 38.9967712609407 6.575880676222022 40.341306360695945 M 0.0 **** -1.04
7041 O 20.407606187979646 35.43823294275165 14.276501497382327 O 0.0 **** 0.0
7042 H 20.813109133203444 34.585888992662 14.435575980899529 H 0.0 **** 0.52
7043 H 19.943303427973827 35.638535505723084 15.089231479706058 H 0.0 **** 0.52
7044 M 20.40007918956597 35.35476341172699 14.400904984228163 M 0.0 **** -1.04
7045 O 5.100032416242281 36.61858605518543 15.049230838347901 O 0.0 **** 0.0
7046 H 6.023251651414889 36.80132648632636 14.874590461609872 H 0.0 **** 0.52
7047 H 4.7020633317790645 36.54324927518405 14.181950525583908 H 0.0 **** 0.52
7048 M 5.167270628276692 36.63233483703604 14.915851412505488 M 0.0 **** -1.04
7049 O 41.18841041234586 15.82259901336867 43.375523540452484 O 0.0 **** 0.0
7050 H 42.12471842705442 15.776027957072472 43.182162810567014 H 0.0 **** 0.52
7051 H 40.91539819059794 14.909202057909559 43.46153734305507 H 0.0 **** 0.52
7052 M 41.273321158432374 15.699710815621255 43.3617812738483 M 0.0 **** -1.04
7053 O 29.888865424541766 4.3225874156307 35.20113325093833 O 0.0 **** 0.0
7054 H 30.30636926256825 4.783774149523943 34.47365324272906 H 0.0 **** 0.52
7055 H 29.808683492354152 4.9828756158389425 35.889479145391505 H 0.0 **** 0.52
7056 M 29.932047171389673 4.466150542055075 35.19612317065704 M 0.0 **** -1.04
7057 O 47.38420235740731 20.981369271789134 46.55449978180534 O 0.0 **** 0.0
7058 H 47.10806697470281 20.525133155600713 47.34937412786248 H 0.0 **** 0.52
7059 H 47.89195558728242 20.331357464394355 46.06880320893645 H 0.0 **** 0.52
7060 M 47.41385291804814 20.839755789033838 46.594079032487926 M 0.0 **** -1.04
7061 O 39.89862483326241 9.206736192336109 32.901512589926355 O 0.0 **** 0.0
7062 H 39.269714528623915 8.525918219892581 32.66237418246991 H 0.0 **** 0.52
7063 H 40.461895733555636 8.793892097960182 33.55612375199372 H 0.0 **** 0.52
7064 M 39.89022238145109 9.066733742108163 32.95469795979195 M 0.0 **** -1.04
7065 O 13.591314673504485 22.40791565137043 31.189985187095346 O 0.0 **** 0.0
7066 H 12.761726388864489 22.69708774337546 30.809996540819842 H 0.0 **** 0.52
7067 H 14.0216197156346 23.21582183615609 31.46990308237224 H 0.0 **** 0.52
7068 M 13.540202108192688 22.548355887357854 31.177174414673672 M 0.0 **** -1.04
7069 O 29.402243576580076 20.22999767411926 19.592817289877402 O 0.0 **** 0.0
7070 H 29.190905362023713 20.016437903124512 18.683995533912054 H 0.0 **** 0.52
7071 H 29.38052840528013 21.18637733859991 19.625896130023435 H 0.0 **** 0.52
7072 M 29.37240981925012 20.325088268907635 19.48071149068585 M 0.0 **** -1.04
7073 O 29.48413762715463 4.839000099481526 1.1378205886449164 O 0.0 **** 0.0
7074 H 29.27352873077509 5.247552932127159 0.29820423549521347 H 0.0 **** 0.52
7075 H 30.173303612458728 5.391116785015102 1.5072063792048969 H 0.0 **** 0.52
7076 M 29.54539883946857 4.961977867993908 1.0776260527506498 M 0.0 **** -1.04
7077 O 11.38073696950115 30.104128019337825 33.37614708668279 O 0.0 **** 0.0
7078 H 11.700002372323986 29.85832671447191 34.24440986024884 H 0.0 **** 0.52
7079 H 11.893488094837096 29.56800675667121 32.77126007561584 H 0.0 **** 0.52
7080 M 11.487245754873705 30.004032229283705 33.409862023578846 M 0.0 **** -1.04
7081 O 40.53638937370311 6.018880855211661 0.2971513227820637 O 0.0 **** 0.0
7082 H 40.09408714964097 5.197138938188276 0.5100760228180121 H 0.0 **** 0.52
7083 H 40.54416382867363 6.507509390508538 1.120201743883662 H 0.0 **** 0.52
7084 M 40.480764996577 5.976237983197211 0.42976896714996826 M 0.0 **** -1.04
7085 O 5.1244847979827455 40.62771363911436 24.030616123839295 O 0.0 **** 0.0
7086 H 4.353324236242486 40.95982170035512 23.571002292580772 H 0.0 **** 0.52
7087 H 5.144230329608547 39.69365449063682 23.822357951039223 H 0.0 **** 0.52
7088 M 5.028294286800801 40.55065673392873 23.945120427217972 M 0.0 **** -1.04
7089 O 36.34615034856575 33.795094402601514 15.85510911167907 O 0.0 **** 0.0
7090 H 36.22938994145294 32.934591257221705 16.257761028627982 H 0.0 **** 0.52
7091 H 36.92176792079392 33.63410352304563 15.1074625589944 H 0.0 **** 0.52
7092 M 36.40488980300979 33.66433107362928 15.810945687992458 M 0.0 **** -1.04
7093 O 27.00129823900476 23.165622674339772 14.668542616787548 O 0.0 **** 0.0
7094 H 27.800407556231647 22.901469954405258 15.124477985840613 H 0.0 **** 0.52
7095 H 26.29242363590847 22.782265110384344 15.18503261741526 H 0.0 **** 0.52
7096 M 27.01284962749444 23.082733559506735 14.793025759185063 M 0.0 **** -1.04
7097 O 7.854677979593481 2.218509127340904 28.39819453910751 O 0.0 **** 0.0
7098 H 7.31560330004291 2.000066257744429 29.15839785455597 H 0.0 **** 0.52
7099 H 7.65956480864019 1.5319598718804919 27.76037806052042 H 0.0 **** 0.52
7100 M 7.760692770208909 2.1026586723554783 28.41386203685226 M 0.0 **** -1.04
7101 O 32.636510304738934 30.26869950199643 2.414225521648106 O 0.0 **** 0.0
7102 H 33.41287857856241 30.588524672106242 1.9546683649101553 H 0.0 **** 0.52
7103 H 32.805508125514066 29.336494374076338 2.550833687638473 H 0.0 **** 0.52
7104 M 32.757528612029674 30.19030766294759 2.372884623411487 M 0.0 **** -1.04
7105 O 31.07323032894348 31.639768696391542 7.667010594079193 O 0.0 **** 0.0
7106 H 30.930536213434767 32.583401166446805 7.740659344328812 H 0.0 **** 0.52
7107 H 30.253811221083225 31.300525000218812 7.306880318549204 H 0.0 **** 0.52
7108 M 30.950067654417822 31.717137385188323 7.630336932214747 M 0.0 **** -1.04
7109 O 49.813816032173875 40.65269989476265 42.94271355875991 O 0.0 **** 0.0
7110 H 48.89319341020694 40.424380169230204 43.071371571336805 H 0.0 **** 0.52
7111 H 49.79094138457197 41.49037478037081 42.48010405858815 H 0.0 **** 0.52
7112 M 49.69303601753871 40.73070595137663 42.899963919460156 M 0.0 **** -1.04
7113 O 17.839512482677897 32.500404636983276 49.54271650477426 O 0.0 **** 0.0
7114 H 17.848786079518828 32.41455596346587 50.496012251511026 H 0.0 **** 0.52
7115 H 18.756826740729547 32.63548054973085 49.30498436795421 H 0.0 **** 0.52
7116 M 17.958127385432352 32.50670612240849 49.63431821746567 M 0.0 **** -1.04
7117 O 23.88431479515123 30.968098924043996 24.230848719964243 O 0.0 **** 0.0
7118 H 23.0227112968397 31.329221797692796 24.43931445878341 H 0.0 **** 0.52
7119 H 24.449385916629716 31.269518168062515 24.942234557548762 H 0.0 **** 0.52
7120 M 23.846355184527845 31.05291260442236 24.34860164636104 M 0.0 **** -1.04
7121 O 30.625676181815834 5.353271985864338 32.40481878630807 O 0.0 **** 0.0
7122 H 30.93331135773269 4.5804777564205095 31.93113246549056 H 0.0 **** 0.52
7123 H 29.683629332237047 5.378350737662349 32.23704879311898 H 0.0 **** 0.52
7124 M 30.544462911628415 5.257554815673504 32.322703658304036 M 0.0 **** -1.04
7125 O 14.142533531319822 27.45030698885166 33.38478312454224 O 0.0 **** 0.0
7126 H 15.03168778580347 27.097699852414948 33.34869667633609 H 0.0 **** 0.52
7127 H 13.87909359313522 27.531297688295847 32.468121318989915 H 0.0 **** 0.52
7128 M 14.222632629924501 27.41553648666836 33.26281924660843 M 0.0 **** -1.04
7129 O 41.10230697392053 22.571608172871535 43.84035786095049 O 0.0 **** 0.0
7130 H 40.17616959195101 22.615938344506134 43.60258727394972 H 0.0 **** 0.52
7131 H 41.11793359794116 22.75468267479785 44.77975540684271 H 0.0 **** 0.52
7132 M 40.98574984318416 22.600718998969228 43.930174704067014 M 0.0 **** -1.04
7133 O 46.48913881873991 18.153403896621263 14.01799116722583 O 0.0 **** 0.0
7134 H 45.86705592851773 17.531745172668934 13.640126314795992 H 0.0 **** 0.52
7135 H 46.06721407034664 19.006619566111862 13.9168483258577 H 0.0 **** 0.52
7136 M 46.35549272157805 18.183046492785348 13.956672498689578 M 0.0 **** -1.04
7137 O 20.570107541312076 3.3933892973358772 49.110506825900686 O 0.0 **** 0.0
7138 H 21.211638398020106 3.0466717885510723 49.730550695011296 H 0.0 **** 0.52
7139 H 19.722058232872563 3.1464532460805446 49.47937564238538 H 0.0 **** 0.52
7140 M 20.54367044575623 3.3173945165775818 49.23710014646727 M 0.0 **** -1.04
7141 O 4.004316551415883 49.76976112915006 18.314816396713095 O 0.0 **** 0.0
7142 H 4.4910667339240575 50.04920558074797 17.539437607527898 H 0.0 **** 0.52
7143 H 3.2083919723602037 50.30135526846187 18.303019400091507 H 0.0 **** 0.52
7144 M 3.964738484671109 49.87358424088051 18.21404830162665 M 0.0 **** -1.04
7145 O 23.060789034462193 48.154313886851966 28.827380433182235 O 0.0 **** 0.0
7146 H 22.16975804573133 47.98302398714535 28.522500677402558 H 0.0 **** 0.52
7147 H 23.460601530139687 48.66658726243451 28.12456094791245 H 0.0 **** 0.52
7148 M 22.997906718942286 48.197964539580454 28.698382349435832 M 0.0 **** -1.04
7149 O 42.22866891093249 42.751463435838254 0.5768717536942404 O 0.0 **** 0.0
7150 H 42.33466880980196 43.194920773795694 -0.2647572485661769 H 0.0 **** 0.52
7151 H 43.121858815757356 42.551382997636324 0.856886959814101 H 0.0 **** 0.52
7152 M 42.35657856286005 42.78261866228151 0.5049782713536795 M 0.0 **** -1.04
7153 O 21.041959722677433 2.0153122537005483 15.439583038145882 O 0.0 **** 0.0
7154 H 20.5144196754963 1.9335113584628527 14.64507727312882 H 0.0 **** 0.52
7155 H 20.402486077125104 2.1445794623760346 16.140006341249933 H 0.0 **** 0.52
7156 M 20.89256725413196 2.0213884011053196 15.427539075316732 M 0.0 **** -1.04
7157 O 41.925012102156 47.949865109620525 47.02698276575417 O 0.0 **** 0.0
7158 H 41.68892987624668 47.30208857608743 47.69096921774909 H 0.0 **** 0.52
7159 H 41.858259286986765 48.79137289577928 47.47824372506421 H 0.0 **** 0.52
7160 M 41.88624535783525 47.97466538769824 47.169747966636756 M 0.0 **** -1.04
7161 O 3.8910581621531812 18.1040475911189 7.653376032236089 O 0.0 **** 0.0
7162 H 3.046915024289018 17.695124527449366 7.8442485695592605 H 0.0 **** 0.52
7163 H 4.469869924007191 17.37184912180325 7.44102941513214 H 0.0 **** 0.52
7164 M 3.8570929225857493 17.95796951209212 7.650626749606488 M 0.0 **** -1.04
7165 O 47.25644342479411 17.752380089681576 16.60999444099113 O 0.0 **** 0.0
7166 H 47.16520520285884 17.92419661545048 15.67277283489371 H 0.0 **** 0.52
7167 H 46.36218308614542 17.596177372119662 16.91351944983927 H 0.0 **** 0.52
7168 M 47.13028736973738 17.75437873957261 16.528872643691408 M 0.0 **** -1.04
7169 O 29.291956706553638 49.82874978384408 38.67568939768311 O 0.0 **** 0.0
7170 H 29.938924643089084 49.193102692434884 38.3697273743609 H 0.0 **** 0.52
7171 H 29.704995310348878 50.24687901740414 39.43120029006169 H 0.0 **** 0.52
7172 M 29.42765031826653 49.80090511336389 38.7332369587882 M 0.0 **** -1.04
7173 O 15.675153258819961 45.509727790707196 43.62993523576751 O 0.0 **** 0.0
7174 H 15.453936547650088 44.771491406523296 43.062220927756954 H 0.0 **** 0.52
7175 H 15.5186543822889 45.18569250918877 44.51691731163006 H 0.0 **** 0.52
7176 M 15.626800543954019 45.37374430287219 43.67080540741274 M 0.0 **** -1.04
7177 O 26.833634381539834 17.78960240635763 9.59608558557646 O 0.0 **** 0.0
7178 H 27.25351848009685 16.940471415935477 9.458601640331523 H 0.0 **** 0.52
7179 H 26.243710225531267 17.648533633533773 10.336570644281892 H 0.0 **** 0.52
7180 M 26.81186687122084 17.662844841370415 9.673277907778953 M 0.0 **** -1.04
7181 O 22.5702200000244 13.009489003928577 32.5556572555812 O 0.0 **** 0.0
7182 H 22.42591515301375 13.381624789084254 31.685645468234043 H 0.0 **** 0.52
7183 H 21.721019830680493 12.644532467230878 32.80444474978279 H 0.0 **** 0.52
7184 M 22.44303835963653 13.010407733008687 32.47613275841125 M 0.0 **** -1.04
7185 O 33.14702893796259 46.374497811097264 37.412231728973794 O 0.0 **** 0.0
7186 H 33.34862432915066 46.75609004796254 36.55784583121721 H 0.0 **** 0.52
7187 H 33.573403421335335 45.51760918566608 37.39899597222484 H 0.0 **** 0.52
7188 M 33.22741716755722 46.313653707822695 37.30116580386458 M 0.0 **** -1.04
7189 O 49.95918771754201 20.739192174946435 20.39507560669818 O 0.0 **** 0.0
7190 H 50.29973939720347 21.19105492345662 19.62301825517726 H 0.0 **** 0.52
7191 H 49.15524036827715 20.317726137044094 20.091325784754495 H 0.0 **** 0.52
7192 M 49.89986670950277 20.74308268792809 20.25735902467937 M 0.0 **** -1.04
7193 O 48.92000265422229 45.75271929373373 15.16361686562206 O 0.0 **** 0.0
7194 H 49.53429743916575 46.376183683689845 14.77611005654255 H 0.0 **** 0.52
7195 H 49.34010717069428 44.90009548010491 15.050601723866933 H 0.0 **** 0.52
7196 M 49.052418085570366 45.72338440398943 15.099543983966939 M 0.0 **** -1.04
7197 O 36.16231781135268 38.78987096646082 42.077116067707685 O 0.0 **** 0.0
7198 H 37.081131038258505 38.81912271077213 41.81036579109137 H 0.0 **** 0.52
7199 H 35.67221011498807 38.864011588169454 41.25825982448727 H 0.0 **** 0.52
7200 M 36.21719721715388 38.80310668641709 41.938145250464906 M 0.0 **** -1.04
7201 O 46.28657082259123 26.559370841061813 41.75586309843085 O 0.0 **** 0.0
7202 H 45.69353041130713 25.839893208161453 41.972384448126014 H 0.0 **** 0.52
7203 H 45.97890442388133 26.876746685610588 40.90683872063504 H 0.0 **** 0.52
7204 M 46.17126917676607 26.507897228264376 41.674894505343275 M 0.0 **** -1.04
7205 O 7.961104204550252 27.58695539532636 33.62450394137023 O 0.0 **** 0.0
7206 H 7.750644733023658 27.652995750258487 32.69306670920349 H 0.0 **** 0.52
7207 H 8.897408365512621 27.38916560679117 33.64554787289458 H 0.0 **** 0.52
7208 M 8.054021463647238 27.570089603325073 33.50796138394557 M 0.0 **** -1.04
7209 O 9.156096084703734 28.413299376811278 22.607466018244708 O 0.0 **** 0.0
7210 H 9.824216128988922 27.75443091538793 22.796506982713993 H 0.0 **** 0.52
7211 H 9.480006841541687 28.867191150603045 21.829460305732056 H 0.0 **** 0.52
7212 M 9.283087819824331 28.38705972062629 22.532071626348895 M 0.0 **** -1.04
7213 O 17.04257246431453 2.3233459157576988 21.786647817377514 O 0.0 **** 0.0
7214 H 17.00220588800618 2.432035583564037 22.73679783565204 H 0.0 **** 0.52
7215 H 17.42935291393863 1.4569182644595315 21.66042304725164 H 0.0 **** 0.52
7216 M 17.086917724346385 2.2263455777714256 21.892120213620572 M 0.0 **** -1.04
7217 O 27.799694334759277 19.511552923576918 48.14915978129669 O 0.0 **** 0.0
7218 H 28.347109264753477 19.68613550445462 48.914723393507074 H 0.0 **** 0.52
7219 H 28.091786636798442 18.655708809424013 47.835405087630775 H 0.0 **** 0.52
7220 M 27.907161220027852 19.424342980082596 48.20699709404019 M 0.0 **** -1.04
7221 O 24.295339395935716 9.818753301338832 16.118657646692622 O 0.0 **** 0.0
7222 H 24.216543415557318 10.120984460035412 17.02346470658678 H 0.0 **** 0.52
7223 H 23.807438292499743 8.995513039412254 16.09726701493019 H 0.0 **** 0.52
7224 M 24.222795058998212 9.75205817272732 16.231745845258146 M 0.0 **** -1.04
7225 O 18.008040852920672 40.224199117700714 20.12044657938307 O 0.0 **** 0.0
7226 H 17.445817881190123 40.85575623324225 20.569077811517772 H 0.0 **** 0.52
7227 H 18.501201386347876 39.80047360459949 20.822926350754663 H 0.0 **** 0.52
7228 M 17.999200030767156 40.25080449844256 20.267802794583655 M 0.0 **** -1.04
7229 O 47.55992848794043 25.74430520434537 8.132470016746481 O 0.0 **** 0.0
7230 H 48.312625730396256 25.352342098139292 8.575234184044106 H 0.0 **** 0.52
7231 H 46.86657638666994 25.744359828303075 8.792386754694604 H 0.0 **** 0.52
7232 M 47.56752545148671 25.69413665713602 8.273627246560551 M 0.0 **** -1.04
7233 O 26.65300899590185 41.63115103788596 1.2010682948383922 O 0.0 **** 0.0
7234 H 27.504954363501177 41.867150174166426 1.5681151629105492 H 0.0 **** 0.52
7235 H 26.064193406218745 41.61008950165875 1.955443136769477 H 0.0 **** 0.52
7236 M 26.68669288154852 41.65866621449318 1.3446243838942271 M 0.0 **** -1.04
7237 O 4.440117679339465 34.06853340465366 0.6686463432330185 O 0.0 **** 0.0
7238 H 4.919440583669072 33.279615824758615 0.4154920026944771 H 0.0 **** 0.52
7239 H 4.187164820156383 34.47240795104207 -0.16149108724918904 H 0.0 **** 0.52
7240 M 4.469095908759712 34.01924328609742 0.5299715273276903 M 0.0 **** -1.04
7241 O 40.43485774213788 42.406403305552814 5.370069313707046 O 0.0 **** 0.0
7242 H 40.04353292118228 43.16378147218304 4.934786852781045 H 0.0 **** 0.52
7243 H 39.96462963256261 41.653869910468536 5.011171210188681 H 0.0 **** 0.52
7244 M 40.32456819613577 42.407023061224415 5.268404225035694 M 0.0 **** -1.04
7245 O 8.703873899785307 13.974572823308122 41.63921301940018 O 0.0 **** 0.0
7246 H 9.411467531929816 14.310292429837363 42.189516017107 H 0.0 **** 0.52
7247 H 8.471169779049369 13.13408194169645 42.0337433006751 H 0.0 **** 0.52
7248 M 8.764666193432149 13.909955767833093 41.76016309016034 M 0.0 **** -1.04
7249 O 19.524464684092017 48.87398844844393 4.551867220443995 O 0.0 **** 0.0
7250 H 19.56473022689023 49.68370029402274 4.042972465482926 H 0.0 **** 0.52
7251 H 18.787991362720515 49.00258449639965 5.149611506897301 H 0.0 **** 0.52
7252 M 19.435341567804887 48.99410420905483 4.563241012474123 M 0.0 **** -1.04
7253 O 24.66658759439782 6.416677440574546 16.876394710666048 O 0.0 **** 0.0
7254 H 24.372603067721904 6.904023716445174 17.646002532154682 H 0.0 **** 0.52
7255 H 25.408915031770587 6.9203655952887 16.542515430328738 H 0.0 **** 0.52
7256 M 24.723980786286752 6.543542027325444 16.932173527176733 M 0.0 **** -1.04
7257 O 21.47070827359432 42.273409425537174 45.561103829031104 O 0.0 **** 0.0
7258 H 22.350581231785046 42.50667295684092 45.26506165535431 H 0.0 **** 0.52
7259 H 21.427121635941337 42.59560558730175 46.461392300438554 H 0.0 **** 0.52
7260 M 21.57776338437635 42.344515715211315 45.63845557047398 M 0.0 **** -1.04
7261 O 25.623359666558553 6.346779758327526 33.47673324588864 O 0.0 **** 0.0
7262 H 25.3521217883824 5.550445801831827 33.93336267503283 H 0.0 **** 0.52
7263 H 25.532871898243826 6.133516481896455 32.54799209055393 H 0.0 **** 0.52
7264 M 25.577054661742622 6.217538314312707 33.416296939449836 M 0.0 **** -1.04
7265 O 15.706213637029421 19.981228949616394 4.387630478127882 O 0.0 **** 0.0
7266 H 15.285819090900517 20.068613541684826 5.24312014179673 H 0.0 **** 0.52
7267 H 16.643877278646556 19.97991636080144 4.580018675065851 H 0.0 **** 0.52
7268 M 15.772430766338527 19.992247389780104 4.5217719369630345 M 0.0 **** -1.04
7269 O 38.64639764276269 28.226839412514305 13.334561376843137 O 0.0 **** 0.0
7270 H 37.77142369303494 27.856801831715227 13.451703837364928 H 0.0 **** 0.52
7271 H 38.87422496973116 28.581039717565766 14.194134358941673 H 0.0 **** 0.52
7272 M 38.56355457639281 28.22481165266929 13.459593198490444 M 0.0 **** -1.04
7273 O 11.120368653443274 7.664544108057319 29.410005245855366 O 0.0 **** 0.0
7274 H 10.801649534663941 6.838821153880619 29.77446062356919 H 0.0 **** 0.52
7275 H 11.114369294788567 7.526970990173526 28.462764362486855 H 0.0 **** 0.52
7276 M 11.078800528034304 7.541229625342001 29.3354009636147 M 0.0 **** -1.04
7277 O 48.48650109654546 41.334710305655356 8.946554867405716 O 0.0 **** 0.0
7278 H 48.49678756653891 40.44981909990171 8.581740532182558 H 0.0 **** 0.52
7279 H 48.402724216629274 41.907588560176166 8.18430748879554 H 0.0 **** 0.52
7280 M 48.477093578722155 41.29476869125927 8.802277302975725 M 0.0 **** -1.04
7281 O 9.862804913593592 30.30812748598958 42.08291514305541 O 0.0 **** 0.0
7282 H 9.662238282250655 29.746265030331045 42.831454900327586 H 0.0 **** 0.52
7283 H 9.245123002688757 30.0342201409134 41.40492442094835 H 0.0 **** 0.52
7284 M 9.758058817464615 30.201138124114465 42.09194615048931 M 0.0 **** -1.04
7285 O 1.4738197484735949 21.20201337727975 30.94782626366572 O 0.0 **** 0.0
7286 H 1.4572634439705041 21.261607615821397 31.903023560855505 H 0.0 **** 0.52
7287 H 0.5867215785486835 20.933478970205794 30.708711543108482 H 0.0 **** 0.52
7288 M 1.3581407419277767 21.17526609910258 31.039493743955532 M 0.0 **** -1.04
7289 O 30.06461524400247 13.184330494993176 11.738110105110252 O 0.0 **** 0.0
7290 H 30.356863765302048 13.480430317400069 12.600167784010026 H 0.0 **** 0.52
7291 H 30.15093783418958 12.231553588621953 11.769628736525775 H 0.0 **** 0.52
7292 M 30.11307721140869 13.100267482436745 11.85249844661427 M 0.0 **** -1.04
7293 O 45.878292800381416 49.42918840043577 49.16450577944517 O 0.0 **** 0.0
7294 H 45.16782336453409 49.826784265703736 48.66113713417881 H 0.0 **** 0.52
7295 H 46.66969090991502 49.864656262903154 48.84782750569494 H 0.0 **** 0.52
7296 M 45.88865346459968 49.5358309700805 49.0595293388191 M 0.0 **** -1.04
7297 O 5.88301628851024 34.536570109299824 30.42405688630095 O 0.0 **** 0.0
7298 H 5.933760357894548 33.79211426846295 29.824524338454538 H 0.0 **** 0.52
7299 H 5.035463216136521 34.93937848559008 30.235304687369954 H 0.0 **** 0.52
7300 M 5.781015083482478 34.49283436814944 30.3231463470203 M 0.0 **** -1.04
7301 O 48.12930424889785 6.917300550308236 10.503068813784882 O 0.0 **** 0.0
7302 H 48.81346869637306 6.37264620674712 10.892299655018354 H 0.0 **** 0.52
7303 H 48.07164545911875 6.6181617798046695 9.595644240290651 H 0.0 **** 0.52
7304 M 48.20950487528373 6.809284576484484 10.43673420551568 M 0.0 **** -1.04
7305 O 21.34049453443515 32.893788945081184 14.524508826793136 O 0.0 **** 0.0
7306 H 21.324041353404553 32.35046155331899 15.312387947215331 H 0.0 **** 0.52
7307 H 20.46593982482753 32.796711218228864 14.147735696108782 H 0.0 **** 0.52
7308 M 21.226435016377295 32.811808700147 14.577136037948101 M 0.0 **** -1.04
7309 O 12.45470848866978 36.04337723441905 31.32563278670395 O 0.0 **** 0.0
7310 H 12.781426721559818 35.17629399280639 31.5657412100502 H 0.0 **** 0.52
7311 H 12.908983675757995 36.25354515189257 30.509732475356465 H 0.0 **** 0.52
7312 M 12.554684843244075 35.95928345432754 31.251923994976245 M 0.0 **** -1.04
7313 O 33.82063192645113 0.952049790618176 28.464334761749846 O 0.0 **** 0.0
7314 H 33.50887905408658 0.7286626931672942 29.3413388949267 H 0.0 **** 0.52
7315 H 34.05504631380883 1.8783281532232792 28.521667082928342 H 0.0 **** 0.52
7316 M 33.810731429289184 1.0420288083071085 28.58394142841058 M 0.0 **** -1.04
7317 O 16.16461801440653 45.153061173859655 13.800188743823071 O 0.0 **** 0.0
7318 H 15.557024073306081 45.63110482549571 14.364575453353403 H 0.0 **** 0.52
7319 H 16.65980972905328 44.59450202928414 14.39937649245472 H 0.0 **** 0.52
7320 M 16.150229068996836 45.142753696160916 13.949140990353591 M 0.0 **** -1.04
7321 O 25.956088520574657 22.36900352129149 33.23428028992718 O 0.0 **** 0.0
7322 H 26.285317222703203 21.54056925935238 32.88566352738757 H 0.0 **** 0.52
7323 H 26.39714382674955 23.040536851035114 32.713951799364864 H 0.0 **** 0.52
7324 M 26.054694659817905 22.348918279252715 33.123043878928925 M 0.0 **** -1.04
7325 O 39.10575552669524 38.207804909837975 27.583786417303696 O 0.0 **** 0.0
7326 H 39.440777792388964 37.38103286451088 27.93082690844895 H 0.0 **** 0.52
7327 H 39.0455481103839 38.781795062580045 28.34742163340987 H 0.0 **** 0.52
7328 M 39.140935515821326 38.17544559335633 27.725966931854515 M 0.0 **** -1.04
7329 O 17.02516207133704 25.366714515539257 22.11222099420098 O 0.0 **** 0.0
7330 H 16.126885477176906 25.03607409288578 22.114566448496007 H 0.0 **** 0.52
7331 H 17.065829262483454 25.94559629519206 21.350990826236977 H 0.0 **** 0.52
7332 M 16.91537700876343 25.39849284309236 22.01507401825928 M 0.0 **** -1.04
7333 O 44.65710164290018 7.67330116315388 32.93050573288592 O 0.0 **** 0.0
7334 H 44.00227383000254 7.889050370632063 32.2665165643226 H 0.0 **** 0.52
7335 H 45.482676319948844 7.992268674469187 32.565930650695016 H 0.0 **** 0.52
7336 M 44.67895953263512 7.741751525476303 32.798836031890325 M 0.0 **** -1.04
7337 O 22.103711573851047 9.314032943243774 0.19438816863207364 O 0.0 **** 0.0
7338 H 22.96780503278146 9.372783831019888 -0.2131893383197081 H 0.0 **** 0.52
7339 H 22.02328841036365 10.120454614082247 0.7037461322260441 H 0.0 **** 0.52
7340 M 22.204031119027118 9.424785672375206 0.20741733136812712 M 0.0 **** -1.04
7341 O 10.75997640029382 49.77088634950463 31.900394841451128 O 0.0 **** 0.0
7342 H 10.718991257950114 49.371860334980205 31.03129943596279 H 0.0 **** 0.52
7343 H 10.995976228515575 50.68358707078416 31.734537224558686 H 0.0 **** 0.52
7344 M 10.784940519345186 49.83664274462868 31.76790791502334 M 0.0 **** -1.04
7345 O 0.27397083092867547 5.312520336447225 5.482323341993393 O 0.0 **** 0.0
7346 H -0.16656031825921502 5.129668132098282 4.65242814395765 H 0.0 **** 0.52
7347 H -0.009228676743212816 6.196868006187154 5.714607011339311 H 0.0 **** 0.52
7348 M 0.18132371054520746 5.402320150272078 5.40582121954133 M 0.0 **** -1.04
7349 O 24.081332222991897 21.140260572931275 46.06058699732238 O 0.0 **** 0.0
7350 H 25.000976973352316 21.248019582118104 45.81795655945295 H 0.0 **** 0.52
7351 H 23.731553240245855 22.031106567762137 46.07724780114713 H 0.0 **** 0.52
7352 M 24.154282090015872 21.268094850089522 46.031659981046694 M 0.0 **** -1.04
7353 O 46.165114988993224 12.9232745737292 41.68787602466186 O 0.0 **** 0.0
7354 H 45.30369199493171 12.59515953458362 41.4299602238766 H 0.0 **** 0.52
7355 H 46.00902598018594 13.386100897905619 42.51107448837642 H 0.0 **** 0.52
7356 M 46.03486032298368 12.940518849098535 41.760238899285056 M 0.0 **** -1.04
7357 O 37.49249730538007 19.08476744628218 18.68154214573606 O 0.0 **** 0.0
7358 H 37.246241943916374 18.203249455202247 18.40134020569829 H 0.0 **** 0.52
7359 H 38.24531864994264 18.951949087967467 19.2576051700474 H 0.0 **** 0.52
7360 M 37.55734436898884 18.954919723586766 18.719415762887238 M 0.0 **** -1.04
7361 O 2.6030472634189064 29.274404257941644 40.30180879093834 O 0.0 **** 0.0
7362 H 3.1443315824949765 29.469436875157427 41.06679425234982 H 0.0 **** 0.52
7363 H 2.9292081928327316 28.431898193935247 39.98553147785695 H 0.0 **** 0.52
7364 M 2.714090805578116 29.191519116035458 40.35924931332383 M 0.0 **** -1.04
7365 O 13.218240468051505 45.332522300588174 7.7062759733310315 O 0.0 **** 0.0
7366 H 13.003536372392404 45.34156815698994 8.639039586203673 H 0.0 **** 0.52
7367 H 13.325441352827347 44.40541198691536 7.493665022649196 H 0.0 **** 0.52
7368 M 13.20447856270701 45.214998310800546 7.798464293392129 M 0.0 **** -1.04
7369 O 49.65536488238483 36.79077601206073 45.06920697175759 O 0.0 **** 0.0
7370 H 48.89182527490022 37.33938499402169 44.88958521985526 H 0.0 **** 0.52
7371 H 49.35479484585036 35.898045077828776 44.899156584667615 H 0.0 **** 0.52
7372 M 49.5191458219164 36.74672445319704 45.02444450069322 M 0.0 **** -1.04
7373 O 30.61719142320213 29.36384630440949 19.639435884305257 O 0.0 **** 0.0
7374 H 29.944341454813184 28.712067046728905 19.836120621899198 H 0.0 **** 0.52
7375 H 30.150099844956088 30.199336990424463 19.642254320560454 H 0.0 **** 0.52
7376 M 30.47126466894042 29.387363178378695 19.664975148495117 M 0.0 **** -1.04
7377 O 1.839440147505322 34.638043840221805 23.02530275609057 O 0.0 **** 0.0
7378 H 2.5209707632357388 35.29948384991361 22.905965379029844 H 0.0 **** 0.52
7379 H 2.0142243971914717 34.26666557645843 23.890032282364803 H 0.0 **** 0.52
7380 M 1.9490593687674738 34.67517542680236 23.120721799142174 M 0.0 **** -1.04
7381 O 40.806420946425476 46.47599799971537 17.873567770725316 O 0.0 **** 0.0
7382 H 40.26530983890776 47.19272714104288 17.542315954480145 H 0.0 **** 0.52
7383 H 41.101808921332875 46.01549239057858 17.088132070918817 H 0.0 **** 0.52
7384 M 40.7749657255974 46.508797609060046 17.730617834333273 M 0.0 **** -1.04
7385 O 47.108122981517525 4.0653674086192035 36.72542907065936 O 0.0 **** 0.0
7386 H 46.67392357037343 4.396907091554677 35.93943822981332 H 0.0 **** 0.52
7387 H 47.22889800520623 4.838289266260405 37.277002141079926 H 0.0 **** 0.52
7388 M 47.06800030647408 4.206752170481556 36.695420715481156 M 0.0 **** -1.04
7389 O 24.677829704537146 44.828552445555815 36.336186281527546 O 0.0 **** 0.0
7390 H 23.795762628778334 44.99504119492469 36.00382117474378 H 0.0 **** 0.52
7391 H 24.647910469081253 43.92645906103724 36.65487294439414 H 0.0 **** 0.52
7392 M 24.561083941901927 44.73438546547586 36.334435217463835 M 0.0 **** -1.04
7393 O 31.175083413756926 18.03470778997474 27.14691264831418 O 0.0 **** 0.0
7394 H 30.717533990611482 18.14681038577751 26.313660726952737 H 0.0 **** 0.52
7395 H 30.869899066079 17.18943309440782 27.476461444926546 H 0.0 **** 0.52
7396 M 31.077444191285444 17.94085246307955 27.082432753303696 M 0.0 **** -1.04
7397 O 41.280556693904025 33.06576183069567 20.26734036884569 O 0.0 **** 0.0
7398 H 40.755304060487106 32.68818039279104 20.972868030257768 H 0.0 **** 0.52
7399 H 42.185117759687145 32.9764565622667 20.56737813285259 H 0.0 **** 0.52
7400 M 41.329112945480276 33.005994992580895 20.396065279133595 M 0.0 **** -1.04
7401 O 34.68585794244361 0.9559259670129561 24.077634033815585 O 0.0 **** 0.0
7402 H 35.469266758262926 0.4818868859756529 23.79873040556416 H 0.0 **** 0.52
7403 H 34.25913541439777 0.3683860236519755 24.701278652612586 H 0.0 **** 0.52
7404 M 34.731518866641224 0.8200305966285324 24.121764338624452 M 0.0 **** -1.04
7405 O 18.365632120386937 2.802076744687163 0.49702524464928644 O 0.0 **** 0.0
7406 H 18.1168503741926 3.521778313074769 1.0769960199341 H 0.0 **** 0.52
7407 H 17.758475141143773 2.8670339794651696 -0.2401109887790156 H 0.0 **** 0.52
7408 M 18.256060535155665 2.902523235033435 0.47690678745172477 M 0.0 **** -1.04
7409 O 47.42072000565513 34.86280815061365 17.719200628276575 O 0.0 **** 0.0
7410 H 48.1797299057784 34.80395089288172 17.13896858135405 H 0.0 **** 0.52
7411 H 47.00003297093161 35.68895097424496 17.480999794896878 H 0.0 **** 0.52
7412 M 47.464029385719414 34.96103052674321 17.61443122526737 M 0.0 **** -1.04
7413 O 7.568699769076382 0.12502807201011734 36.10163661278659 O 0.0 **** 0.0
7414 H 7.718982941893316 0.8530101256253175 36.70470062664924 H 0.0 **** 0.52
7415 H 8.32242935949057 -0.45119404904855287 36.228470634021285 H 0.0 **** 0.52
7416 M 7.684424060936571 0.14445518592055606 36.195072896785845 M 0.0 **** -1.04
7417 O 17.280299425409854 29.851598316354156 22.38827946088597 O 0.0 **** 0.0
7418 H 17.452729432553166 30.426006737482012 21.642255947937343 H 0.0 **** 0.52
7419 H 16.46274406611163 29.406777221175687 22.164745756581198 H 0.0 **** 0.52
7420 M 17.19771539769829 29.86818700128163 22.264164009078826 M 0.0 **** -1.04
7421 O 45.79127501247783 9.509252434570012 0.6972167153800441 O 0.0 **** 0.0
7422 H 44.98691344941647 9.032937779366364 0.903021782349299 H 0.0 **** 0.52
7423 H 45.5130938926551 10.202877948795022 0.09911295639439999 H 0.0 **** 0.52
7424 M 45.65269593608794 9.537071253567857 0.6469980687184176 M 0.0 **** -1.04
7425 O 44.30909143679713 9.012580264664972 6.3572158973545 O 0.0 **** 0.0
7426 H 44.142573584454205 8.526493174086916 5.5496139450056745 H 0.0 **** 0.52
7427 H 44.6023516807118 8.348381019176724 6.98096765692646 H 0.0 **** 0.52
7428 M 44.32531633823828 8.865329436073814 6.333680699576547 M 0.0 **** -1.04
7429 O 22.644353543698465 47.08763771727538 7.235053461771223 O 0.0 **** 0.0
7430 H 22.47215884723727 47.95375486974456 6.865704999516019 H 0.0 **** 0.52
7431 H 22.42711892240354 46.4783450005571 6.529503534514571 H 0.0 **** 0.52
7432 M 22.594502274421952 47.12051507008902 7.097453217133042 M 0.0 **** -1.04
7433 O 28.387248430721154 41.669315687593 8.245442261500855 O 0.0 **** 0.0
7434 H 29.30678879965979 41.685432571372345 7.980084249760145 H 0.0 **** 0.52
7435 H 28.17822923571691 42.58243808944737 8.442283507219399 H 0.0 **** 0.52
7436 M 28.478203302979047 41.788269826938695 8.236670838237675 M 0.0 **** -1.04
7437 O 46.035895500254675 49.72941558977147 26.653833041642017 O 0.0 **** 0.0
7438 H 46.15837444127073 49.142198591822414 27.399757880124454 H 0.0 **** 0.52
7439 H 46.909126398123455 50.080088388784226 26.47854733619916 H 0.0 **** 0.52
7440 M 46.163359039262815 49.699134616939496 26.726881830323716 M 0.0 **** -1.04
7441 O 16.46910114862135 8.105975204011933 32.085443783975435 O 0.0 **** 0.0
7442 H 16.62990675114575 9.027266240439381 32.28938680922675 H 0.0 **** 0.52
7443 H 16.07169171349204 8.118743536093255 31.214735777682563 H 0.0 **** 0.52
7444 M 16.438812480589228 8.225546892725646 32.00008935437742 M 0.0 **** -1.04
7445 O 14.156210580842028 30.81904387680305 38.509199914082664 O 0.0 **** 0.0
7446 H 14.456610456662688 31.195170724435428 37.68184441776826 H 0.0 **** 0.52
7447 H 14.497954049742958 29.924942675895707 38.504465577784906 H 0.0 **** 0.52
7448 M 14.238413251142688 30.752736868044792 38.402682377212145 M 0.0 **** -1.04
7449 O 23.387846090351577 29.20681565547224 29.94237059683727 O 0.0 **** 0.0
7450 H 23.696820290459076 28.531133231984697 30.54587465759285 H 0.0 **** 0.52
7451 H 22.483922624979407 29.37257430931507 30.210091800553595 H 0.0 **** 0.52
7452 M 23.311685178090947 29.14153931491444 30.05389784031178 M 0.0 **** -1.04
7453 O 40.00040382481787 15.594809280718836 19.647998551214066 O 0.0 **** 0.0
7454 H 40.02997068396159 15.904173868888115 18.742654586053067 H 0.0 **** 0.52
7455 H 39.30944400410885 16.11574604164049 20.057177980169637 H 0.0 **** 0.52
7456 M 39.915737747128 15.701098686303672 19.584483683143354 M 0.0 **** -1.04
7457 O 16.88776241959687 8.261412279863036 42.73611312766858 O 0.0 **** 0.0
7458 H 16.408501074302087 8.13180421993999 41.917737285904416 H 0.0 **** 0.52
7459 H 16.315879589090194 7.893803166013822 43.40994025480481 H 0.0 **** 0.52
7460 M 16.753202382827897 8.197762427130419 42.71760887483717 M 0.0 **** -1.04
7461 O 28.853817730550144 26.973267538857044 11.258183008594472 O 0.0 **** 0.0
7462 H 28.7929428314011 26.09803838535271 11.640931586457597 H 0.0 **** 0.52
7463 H 29.63271490692824 26.938720151097755 10.702885215806845 H 0.0 **** 0.52
7464 M 28.945733467641283 26.856804918824523 11.236094524351174 M 0.0 **** -1.04
7465 O 40.011845241462346 37.123228051972504 44.07465910249186 O 0.0 **** 0.0
7466 H 39.29857109287282 37.057990220789 44.709648353809655 H 0.0 **** 0.52
7467 H 40.79119170436583 36.853620253794766 44.56062133476448 H 0.0 **** 0.52
7468 M 40.02030353595335 37.080363554238616 44.218155228217675 M 0.0 **** -1.04
7469 O 25.968456788236637 10.92461388993923 30.600738645461185 O 0.0 **** 0.0
7470 H 26.121988638756353 10.226596000675071 31.237470361518007 H 0.0 **** 0.52
7471 H 26.48993924037381 11.66060616928654 30.92105223764799 H 0.0 **** 0.52
7472 M 26.054866704678684 10.92947574367019 30.72325219651489 M 0.0 **** -1.04
7473 O 17.965376213992272 22.15790207918471 22.91813419300208 O 0.0 **** 0.0
7474 H 18.001721829799123 22.715781506742374 22.141166474662487 H 0.0 **** 0.52
7475 H 17.03880016562462 22.140076540193945 23.157650268958097 H 0.0 **** 0.52
7476 M 17.85141581418668 22.22703649206555 22.849333801195204 M 0.0 **** -1.04
7477 O 49.97510440022724 38.15510726965861 33.12273128000137 O 0.0 **** 0.0
7478 H 49.376702248615246 38.608560678439076 33.71646925200694 H 0.0 **** 0.52
7479 H 49.6864927556959 38.41367638870096 32.24747541685941 H 0.0 **** 0.52
7480 M 49.86155478732029 38.24625519324193 33.086694034655416 M 0.0 **** -1.04
7481 O 6.49809702881479 1.521918233105076 44.71590479808471 O 0.0 **** 0.0
7482 H 6.567806640460098 2.111677205335056 43.96520323424939 H 0.0 **** 0.52
7483 H 5.556574923088952 1.4274588434794993 44.860272153405916 H 0.0 **** 0.52
7484 M 6.38649363745013 1.5853228208431176 44.63828698307628 M 0.0 **** -1.04
7485 O 29.15892848376309 47.584925273521726 12.400855365003704 O 0.0 **** 0.0
7486 H 28.23929615927564 47.672004413872834 12.15001132288385 H 0.0 **** 0.52
7487 H 29.31667093780844 46.640864280381244 12.410600131438912 H 0.0 **** 0.52
7488 M 29.06139660258699 47.475220462699774 12.369991301146895 M 0.0 **** -1.04
7489 O 17.456616937866087 34.88076224642311 18.36111964435773 O 0.0 **** 0.0
7490 H 18.19496241124331 35.15346752440844 18.905826925368928 H 0.0 **** 0.52
7491 H 17.389756098119545 33.936468013150105 18.5027769395671 H 0.0 **** 0.52
7492 M 17.54257495766329 34.79479039051592 18.448982903854528 M 0.0 **** -1.04
7493 O 19.119806267303208 18.406150948745577 2.1723749300730804 O 0.0 **** 0.0
7494 H 19.101827142002186 19.359819692832133 2.2525185412669537 H 0.0 **** 0.52
7495 H 20.050647539390948 18.183099216664544 2.1690781766494394 H 0.0 **** 0.52
7496 M 19.236664204634096 18.499678841388274 2.182212070641867 M 0.0 **** -1.04
7497 O 31.154760029812408 39.50505962688226 16.698779565902683 O 0.0 **** 0.0
7498 H 30.76710734543444 38.988748958823315 15.992113918378251 H 0.0 **** 0.52
7499 H 30.452831031391675 39.59478587284855 17.34335143883999 H 0.0 **** 0.52
7500 M 31.015280491083324 39.450451790870865 16.690830266746488 M 0.0 **** -1.04
7501 O 33.120777126264514 21.74974269339823 5.994515921792143 O 0.0 **** 0.0
7502 H 32.55657637825756 20.998368431419447 6.177116351388313 H 0.0 **** 0.52
7503 H 32.95903396571985 21.953034835834 5.073245107843629 H 0.0 **** 0.52
7504 M 33.027847367781064 21.679580433127576 5.899956392352186 M 0.0 **** -1.04
7505 O 20.456340180112193 43.956793397164375 32.9625808157571 O 0.0 **** 0.0
7506 H 19.54676999949689 43.72009209006089 32.78124631771208 H 0.0 **** 0.52
7507 H 20.788708553740314 43.23809513366055 33.500385431636026 H 0.0 **** 0.52
7508 M 20.382451423661053 43.834490702573845 33.008214168581574 M 0.0 **** -1.04
7509 O 30.286486251081463 0.8597810918647865 46.63580569748098 O 0.0 **** 0.0
7510 H 30.879351113858807 0.8825209659481277 45.88465821368012 H 0.0 **** 0.52
7511 H 30.86099492268403 0.735842932054517 47.391324366742026 H 0.0 **** 0.52
7512 M 30.435925062907934 0.8468268802270075 46.636366085518794 M 0.0 **** -1.04
7513 O 0.36572578912416276 7.474026498944049 46.01833157361578 O 0.0 **** 0.0
7514 H 0.004248018239287887 6.592443160245068 45.92682943169718 H 0.0 **** 0.52
7515 H 1.0606670641457683 7.382002417143596 46.67011192453652 H 0.0 **** 0.52
7516 M 0.4084133516381172 7.349392862878339 46.09005410473163 M 0.0 **** -1.04
7517 O 47.330953712608085 25.647723248586573 14.202539913099608 O 0.0 **** 0.0
7518 H 46.57046501769172 25.106504711824762 13.990484556992142 H 0.0 **** 0.52
7519 H 47.55922107596824 26.07490582550838 13.376926418095373 H 0.0 **** 0.52
7520 M 47.2628225165197 25.63312579961185 14.06970488323165 M 0.0 **** -1.04
7521 O 5.264730871911724 39.93717776634173 14.140756569128964 O 0.0 **** 0.0
7522 H 5.616524678421823 40.64364835107531 14.68239258098461 H 0.0 **** 0.52
7523 H 5.330665100394666 40.26641299660625 13.24438323839026 H 0.0 **** 0.52
7524 M 5.318205888017114 40.06976090207783 14.095345680942312 M 0.0 **** -1.04
7525 O 33.480986531432315 8.934184419894676 0.3150652856078376 O 0.0 **** 0.0
7526 H 32.59551632650917 8.656110769463927 0.08087206928838858 H 0.0 **** 0.52
7527 H 33.351205995398885 9.677014197971303 0.9046327628172457 H 0.0 **** 0.52
7528 M 33.351021492119884 8.993679455203996 0.36055791947368826 M 0.0 **** -1.04
7529 O 39.84091196225969 12.195422385177197 28.017368647691733 O 0.0 **** 0.0
7530 H 40.287630895325144 11.5635668998694 28.58077776268106 H 0.0 **** 0.52
7531 H 38.9133216495475 12.09298659677031 28.23023372210441 H 0.0 **** 0.52
7532 M 39.779354367360824 12.10142426686013 28.11674130707102 M 0.0 **** -1.04
7533 O 36.496664108368776 24.138372903197308 41.96019023496279 O 0.0 **** 0.0
7534 H 37.25979528861615 23.941871041516112 42.50355763680494 H 0.0 **** 0.52
7535 H 35.809701665056494 24.368943548260077 42.5856087563502 H 0.0 **** 0.52
7536 M 36.5064154932779 24.142733727889137 42.109809351155796 M 0.0 **** -1.04
7537 O 12.307432448641455 23.255504764839493 26.94544528609478 O 0.0 **** 0.0
7538 H 11.689101185577975 22.854111663323298 26.334889413225493 H 0.0 **** 0.52
7539 H 12.978429669750382 22.586640052001783 27.0818733503238 H 0.0 **** 0.52
7540 M 12.314174641630844 23.118498714659438 26.88475047403687 M 0.0 **** -1.04
7541 O 44.35466503937829 31.975423134471953 35.97011297866344 O 0.0 **** 0.0
7542 H 44.594074997533696 31.6395648396405 35.10633606297406 H 0.0 **** 0.52
7543 H 45.06732842069857 31.693077084879036 36.54336865765 H 0.0 **** 0.52
7544 M 44.47654281099766 31.896284648978195 35.93292289303767 M 0.0 **** -1.04
7545 O 1.9225318318211986 31.998868983066195 16.584157683163404 O 0.0 **** 0.0
7546 H 2.332685664476398 31.56505124165769 17.332358136440533 H 0.0 **** 0.52
7547 H 2.0400630529446246 31.386697956726085 15.857754582393213 H 0.0 **** 0.52
7548 M 1.9900817803925768 31.86496923117907 16.58694730438974 M 0.0 **** -1.04
7549 O 31.251647894347204 34.288066876350875 7.826675764180796 O 0.0 **** 0.0
7550 H 31.17233192889593 35.086387067250136 8.348808121086247 H 0.0 **** 0.52
7551 H 30.872138101899363 34.51742333139705 6.978385392990966 H 0.0 **** 0.52
7552 M 31.192912633779585 34.41962250987208 7.784923800623661 M 0.0 **** -1.04
7553 O 20.75992487132904 42.65456402517386 30.592493853797997 O 0.0 **** 0.0
7554 H 20.966590938290032 43.23446491834347 31.32545579631483 H 0.0 **** 0.52
7555 H 19.803460579515328 42.64513274469573 30.556228776562246 H 0.0 **** 0.52
7556 M 20.66394118173794 42.727591048306294 30.681679949686863 M 0.0 **** -1.04
7557 O 5.740124156073852 8.94868749000831 37.5011541700603 O 0.0 **** 0.0
7558 H 5.135972841994802 9.556359834985955 37.92772736517031 H 0.0 **** 0.52
7559 H 5.903510946098448 9.336582593100673 36.641462202860495 H 0.0 **** 0.52
7560 M 5.6837002617339 9.07613242260041 37.44570932462725 M 0.0 **** -1.04
7561 O 47.80344046095148 13.239815404580064 28.046352770769676 O 0.0 **** 0.0
7562 H 47.07297513764373 13.805369902800848 27.79575985931917 H 0.0 **** 0.52
7563 H 48.50969182718139 13.480071874722668 27.446592067561237 H 0.0 **** 0.52
7564 M 47.800340325576634 13.342969799702942 27.937496849329836 M 0.0 **** -1.04
7565 O 14.574837760760076 23.184790009946024 38.76895308884499 O 0.0 **** 0.0
7566 H 15.250762724685558 23.851041543374482 38.893303217121115 H 0.0 **** 0.52
7567 H 14.176275765302975 23.401652242613363 37.92613215507701 H 0.0 **** 0.52
7568 M 14.610343404083437 23.297839303591733 38.67697957417694 M 0.0 **** -1.04
7569 O 35.389994687271994 34.12570393229629 47.268058773927706 O 0.0 **** 0.0
7570 H 34.984651552046806 33.57448050002736 47.93744466719465 H 0.0 **** 0.52
7571 H 36.32299008633887 33.91790779034653 47.318736561361 H 0.0 **** 0.52
7572 M 35.45754081186849 34.028540253450615 47.36023572567352 M 0.0 **** -1.04
7573 O 35.462112095252785 35.27086399539695 6.667473471472221 O 0.0 **** 0.0
7574 H 34.95357576376277 36.08161732254598 6.684778652722156 H 0.0 **** 0.52
7575 H 34.80961612118256 34.576332033186446 6.757487996626821 H 0.0 **** 0.52
7576 M 35.313485771309786 35.28574239624294 6.681211925186104 M 0.0 **** -1.04
7577 O 4.395913745882919 1.075661428598236 49.251793712153116 O 0.0 **** 0.0
7578 H 4.622580223837206 1.9980542660213545 49.370298381474306 H 0.0 **** 0.52
7579 H 3.459894041927299 1.0315381492689744 49.44711282498047 H 0.0 **** 0.52
7580 M 4.305107403042863 1.1880910779249045 49.29196700777673 M 0.0 **** -1.04
7581 O 31.993789774866016 11.046804018972267 37.91703272262728 O 0.0 **** 0.0
7582 H 32.07963228105314 10.126849548614118 38.167119144954725 H 0.0 **** 0.52
7583 H 32.850547260662296 11.279107679347803 37.558939592956925 H 0.0 **** 0.52
7584 M 32.11445459489744 10.958776290676667 37.90320598574187 M 0.0 **** -1.04
7585 O 22.613336989581835 25.755268178715216 38.317026410297196 O 0.0 **** 0.0
7586 H 22.624387865943977 24.830752870553948 38.564774700869094 H 0.0 **** 0.52
7587 H 22.95533126176387 26.213536347303585 39.08465875745275 H 0.0 **** 0.52
7588 M 22.658530996221884 25.69558237510495 38.447008311211206 M 0.0 **** -1.04
7589 O 25.220222064766705 9.977617151281066 8.296504650114457 O 0.0 **** 0.0
7590 H 25.336907748397937 10.07510772024468 9.241548090411115 H 0.0 **** 0.52
7591 H 25.34836827310744 10.859324699860466 7.94664846315893 H 0.0 **** 0.52
7592 M 25.25156405424933 10.102966808482378 8.372695247288824 M 0.0 **** -1.04
7593 O 3.4855078689837775 41.4624693499244 33.75510359804807 O 0.0 **** 0.0
7594 H 3.500925170665135 40.61087285840186 33.31832629496029 H 0.0 **** 0.52
7595 H 2.5696597652482502 41.58833464665087 34.003312680019825 H 0.0 **** 0.52
7596 M 3.3702420025962136 41.36956665334955 33.73096454355066 M 0.0 **** -1.04
7597 O 41.72389325477832 47.8285950185398 25.785960427867842 O 0.0 **** 0.0
7598 H 42.08043535550755 47.15006608689625 26.359288318622077 H 0.0 **** 0.52
7599 H 42.48740149923208 48.33657963707735 25.511668586875732 H 0.0 **** 0.52
7600 M 41.86727315464357 47.806763206810494 25.82424073812336 M 0.0 **** -1.04
7601 O 0.080445547612711 20.686565807567074 15.171303232484895 O 0.0 **** 0.0
7602 H 0.6804419761043654 20.653244149293293 14.42623731817571 H 0.0 **** 0.52
7603 H -0.7694562981163244 20.899170079506945 14.785694142954416 H 0.0 **** 0.52
7604 M 0.04845468605068248 20.709516267039483 15.026563126803953 M 0.0 **** -1.04
7605 O 6.438624621741409 27.19373915098584 18.075349947744797 O 0.0 **** 0.0
7606 H 6.817727088690747 26.63600174967709 17.396057116636115 H 0.0 **** 0.52
7607 H 7.064550685188568 27.91120660455949 18.17376254724023 H 0.0 **** 0.52
7608 M 6.567280469117115 27.214186487678486 18.000989648900415 M 0.0 **** -1.04
7609 O 48.01904767325249 27.17838374112199 11.935074668004646 O 0.0 **** 0.0
7610 H 48.021666067733975 27.19016139164333 10.977952138093677 H 0.0 **** 0.52
7611 H 47.343814140966884 27.810681842710153 12.181016801714492 H 0.0 **** 0.52
7612 M 47.93294400971628 27.260833987305702 11.844034529676108 M 0.0 **** -1.04
7613 O 13.117327010291712 24.277244912577125 16.996319050154348 O 0.0 **** 0.0
7614 H 13.208620204475196 23.794516228142324 16.174815964898368 H 0.0 **** 0.52
7615 H 13.68718594560614 23.814934575826218 17.610939509668224 H 0.0 **** 0.52
7616 M 13.201962345253387 24.156267708700728 16.96983602404024 M 0.0 **** -1.04
7617 O 13.758680654692066 19.68668172364154 48.247289961148546 O 0.0 **** 0.0
7618 H 14.43962788074559 19.694000166048525 47.574618932748976 H 0.0 **** 0.52
7619 H 14.230613959783408 19.52800498888662 49.064803663926945 H 0.0 **** 0.52
7620 M 13.906264089836053 19.667305913562444 48.26583207885091 M 0.0 **** -1.04
7621 O 11.607089657224035 28.085989114790152 39.59869055874188 O 0.0 **** 0.0
7622 H 11.239406961481583 27.449466152092462 40.211778826509764 H 0.0 **** 0.52
7623 H 12.079744808556832 28.707328788182853 40.15255215368897 H 0.0 **** 0.52
7624 M 11.62052708973688 28.08404569752565 39.748075103868835 M 0.0 **** -1.04
7625 O 18.861779170346466 49.51572203226163 25.04861595033897 O 0.0 **** 0.0
7626 H 17.942966434952226 49.34660153690403 25.256963976424395 H 0.0 **** 0.52
7627 H 19.273169903330796 49.683491250040305 25.896460389624192 H 0.0 **** 0.52
7628 M 18.796822139490402 49.515549288304626 25.183821941659243 M 0.0 **** -1.04
7629 O 1.5996611958680163 28.980759449003425 10.482180050084233 O 0.0 **** 0.0
7630 H 1.2281760142657419 28.680420455630784 11.311651998055675 H 0.0 **** 0.52
7631 H 0.853894574247569 29.013278285644386 9.883011233289631 H 0.0 **** 0.52
7632 M 1.4566387387217787 28.946474814935385 10.511661772433682 M 0.0 **** -1.04
7633 O 27.15694333830616 27.63000975870664 29.95098421263731 O 0.0 **** 0.0
7634 H 26.874872137216062 27.050410933314758 30.65860698379337 H 0.0 **** 0.52
7635 H 27.546048604380456 28.382024485020597 30.397415401085027 H 0.0 **** 0.52
7636 M 27.170645166835698 27.652081312192472 30.098717837139944 M 0.0 **** -1.04
7637 O 18.590050439027134 12.043041741906253 49.001128312561434 O 0.0 **** 0.0
7638 H 17.97085398738548 12.223261970552912 48.2937764291529 H 0.0 **** 0.52
7639 H 19.450333310329242 12.085201674305955 48.58355956890009 H 0.0 **** 0.52
7640 M 18.620912906537484 12.071509444717515 48.85712429904154 M 0.0 **** -1.04
7641 O 24.246444389373888 9.016176915722236 48.6949840591854 O 0.0 **** 0.0
7642 H 24.177212312211093 8.068278154953727 48.808661819166524 H 0.0 **** 0.52
7643 H 24.97601129521313 9.272870533191048 49.258959973550546 H 0.0 **** 0.52
7644 M 24.330975363315023 8.92769409109658 48.78173177544255 M 0.0 **** -1.04
7645 O 10.070310148646449 5.975352126402949 3.378569833504571 O 0.0 **** 0.0
7646 H 10.403283845649256 6.151934154646942 2.49869688422988 H 0.0 **** 0.52
7647 H 9.25434993731622 6.473062022019416 3.4307492697337416 H 0.0 **** 0.52
7648 M 10.008481718464104 6.061670155656011 3.2726151050019014 M 0.0 **** -1.04
7649 O 35.24829093187087 20.222273147835665 25.504138759953946 O 0.0 **** 0.0
7650 H 35.62723832733603 21.07153309422429 25.730824141167147 H 0.0 **** 0.52
7651 H 35.51642170853579 20.074202213689993 24.597270896451263 H 0.0 **** 0.52
7652 M 35.33112577448053 20.31203408445683 25.41706644908109 M 0.0 **** -1.04
7653 O 20.676926751129848 31.39355994859075 16.870032852788302 O 0.0 **** 0.0
7654 H 21.458926630213252 31.373973554921154 17.421685958468377 H 0.0 **** 0.52
7655 H 20.017915381871827 31.837708045212246 17.403571836334084 H 0.0 **** 0.52
7656 M 20.6926715756635 31.447909329073877 17.008950843468064 M 0.0 **** -1.04
7657 O 4.694666770171054 19.44867343345635 42.77193785743665 O 0.0 **** 0.0
7658 H 4.916076615822291 18.68220323385863 43.30083191357658 H 0.0 **** 0.52
7659 H 4.408533270641719 20.104474810455372 43.40776845775336 H 0.0 **** 0.52
7660 M 4.686381886636305 19.43450639305604 42.92103729106773 M 0.0 **** -1.04
7661 O 1.7992200106740839 15.37387427380015 23.4593211651845 O 0.0 **** 0.0
7662 H 1.1967073673180053 15.834954195996763 22.875701947149746 H 0.0 **** 0.52
7663 H 1.6254778026122665 14.446253054786682 23.299443972664694 H 0.0 **** 0.52
7664 M 1.6998490311613565 15.314151076610067 23.36414502113013 M 0.0 **** -1.04
7665 O 14.734406310355952 39.399920017074166 42.553316362631726 O 0.0 **** 0.0
7666 H 15.54698400111495 39.87752196289353 42.38645641524064 H 0.0 **** 0.52
7667 H 14.709201484190014 39.29407090429358 43.50431087064664 H 0.0 **** 0.52
7668 M 14.835199733586112 39.44750891892201 42.65369488647741 M 0.0 **** -1.04
7669 O 45.75982902877594 43.459398637939344 12.655832105030626 O 0.0 **** 0.0
7670 H 45.359717326850195 44.323499386681036 12.753140872012393 H 0.0 **** 0.52
7671 H 46.497423111063334 43.60188865220532 12.062637348467938 H 0.0 **** 0.52
7672 M 45.80303084400952 43.58825468159162 12.592352665880489 M 0.0 **** -1.04
7673 O 16.251449037542898 11.056539872817664 43.71657669144429 O 0.0 **** 0.0
7674 H 16.487742970634912 10.26137536239482 43.23896987922089 H 0.0 **** 0.52
7675 H 16.28877655135497 11.751343529707748 43.05924733409438 H 0.0 **** 0.52
7676 M 16.28647632660708 11.043692143143272 43.57129056272913 M 0.0 **** -1.04
7677 O 17.271926832292124 39.85015919957601 28.51210500350576 O 0.0 **** 0.0
7678 H 17.290677779308794 39.258440775179785 27.75994477152974 H 0.0 **** 0.52
7679 H 17.541394085798743 39.30618293833849 29.252176751016655 H 0.0 **** 0.52
7680 M 17.30882183119992 39.70477684794985 28.51055752773984 M 0.0 **** -1.04
7681 O 46.365037050460614 10.362553851888363 29.55850244408402 O 0.0 **** 0.0
7682 H 45.87031482844409 10.893353923701426 30.18278572589449 H 0.0 **** 0.52
7683 H 47.272852261417626 10.644835549528695 29.669930182767608 H 0.0 **** 0.52
7684 M 46.417918116654754 10.466638407271171 29.652681982408055 M 0.0 **** -1.04
7685 O 27.068406120897805 30.00751262509762 22.579876191198654 O 0.0 **** 0.0
7686 H 27.379823854575893 29.61945902593846 21.762158717280222 H 0.0 **** 0.52
7687 H 26.489633753028283 29.34394641389874 22.95528417307835 H 0.0 **** 0.52
7688 M 27.03418099285953 29.87289251426039 22.523254698124795 M 0.0 **** -1.04
7689 O 10.46441397447144 14.193478472860193 0.3787736133216916 O 0.0 **** 0.0
7690 H 10.990409154700572 13.788465544461936 -0.31080689542747564 H 0.0 **** 0.52
7691 H 9.948179780693991 13.473416232178977 0.741045228991315 H 0.0 **** 0.52
7692 M 10.465663860776331 14.049455079649292 0.3368738516608228 M 0.0 **** -1.04
7693 O 29.338743048906903 13.455508666116694 23.96256521791544 O 0.0 **** 0.0
7694 H 28.835618692776244 12.64724685255376 24.061599519371327 H 0.0 **** 0.52
7695 H 29.918665116415514 13.287718170565922 23.219757052878094 H 0.0 **** 0.52
7696 M 29.34857402817077 13.330561131796033 23.8801537466575 M 0.0 **** -1.04
7697 O 13.360027351692729 9.391864311018317 33.26704934958672 O 0.0 **** 0.0
7698 H 13.95371336926145 9.747213381111358 32.60561737153509 H 0.0 **** 0.52
7699 H 13.912640920086162 8.826386569450932 33.806568170951856 H 0.0 **** 0.52
7700 M 13.50676816528209 9.364965607025333 33.251443071503004 M 0.0 **** -1.04
7701 O 38.84370701218294 26.39586172573408 47.33817427080101 O 0.0 **** 0.0
7702 H 38.705053032737325 26.28445823891351 46.39764605813237 H 0.0 **** 0.52
7703 H 38.34268538815713 25.686297413219247 47.74032481329778 H 0.0 **** 0.52
7704 M 38.761820626548456 26.290767484177557 47.26925556430274 M 0.0 **** -1.04
7705 O 6.542686489100156 39.14673756010396 7.731735019760249 O 0.0 **** 0.0
7706 H 5.87746758967473 38.553165487159006 7.383330579386029 H 0.0 **** 0.52
7707 H 7.276853149260923 38.57671927175875 7.96044474266201 H 0.0 **** 0.52
7708 M 6.5515124122898385 38.99778302454446 7.716412621086592 M 0.0 **** -1.04
7709 O 47.10133573312174 33.72421330648863 36.78985214937854 O 0.0 **** 0.0
7710 H 46.68228561209082 32.875746581703716 36.64587896686613 H 0.0 **** 0.52
7711 H 48.033038463674245 33.55938227996436 36.6449774259759 H 0.0 **** 0.52
7712 M 47.16696220153252 33.59449842260832 36.752876260128296 M 0.0 **** -1.04
7713 O 33.34136421592492 11.217398494569267 8.756647659868507 O 0.0 **** 0.0
7714 H 33.19704576311966 10.529075984444539 9.405964465805758 H 0.0 **** 0.52
7715 H 34.156343752974394 10.968809472441592 8.320481084020132 H 0.0 **** 0.52
7716 M 33.42721740709904 11.097461757424838 8.783933407895091 M 0.0 **** -1.04
7717 O 12.19171339233823 48.49231335429979 37.87652401986919 O 0.0 **** 0.0
7718 H 11.799355125033657 49.32285642124572 38.14574813781348 H 0.0 **** 0.52
7719 H 11.68176180088902 47.825656123531694 38.33668304743153 H 0.0 **** 0.52
7720 M 12.076206158746224 48.51329260938864 37.96989432601006 M 0.0 **** -1.04
7721 O 1.2979972496591305 2.089965764120125 4.43025966868403 O 0.0 **** 0.0
7722 H 0.44586029350559553 1.6838367379614523 4.5888472815348536 H 0.0 **** 0.52
7723 H 1.1641091204769614 2.6332572354325796 3.6536411860111286 H 0.0 **** 0.52
7724 M 1.1717734620022837 2.1075236781191387 4.351144511940447 M 0.0 **** -1.04
7725 O 26.274675211630687 19.963502105584322 41.46165384552263 O 0.0 **** 0.0
7726 H 26.202192158824825 20.35280620862372 40.59020815282964 H 0.0 **** 0.52
7727 H 25.651364000293537 20.454929245439587 41.9966404119667 H 0.0 **** 0.52
7728 M 26.18560421825664 20.076246194030418 41.418582723401116 M 0.0 **** -1.04
7729 O 49.56454812031506 22.658499331480314 25.04010353864271 O 0.0 **** 0.0
7730 H 49.98351688539141 22.53177680956651 25.891358475138116 H 0.0 **** 0.52
7731 H 49.999517504088 22.031044724024753 24.462756122224675 H 0.0 **** 0.52
7732 M 49.67386315911526 22.56195476827193 25.07516696688398 M 0.0 **** -1.04
7733 O 45.24863245269384 38.53729121178484 49.3462583093619 O 0.0 **** 0.0
7734 H 44.728421215046694 38.83599175671973 48.600344514863906 H 0.0 **** 0.52
7735 H 44.72726045331902 37.83608760520904 49.73704343142024 H 0.0 **** 0.52
7736 M 45.11529666123607 38.48576581527781 49.30079740586089 M 0.0 **** -1.04
7737 O 39.956606931694964 44.915529772104854 21.882742992813206 O 0.0 **** 0.0
7738 H 40.09160467402425 45.82939213778479 22.133458777936667 H 0.0 **** 0.52
7739 H 39.28661205632898 44.59716276063678 22.48770347091603 H 0.0 **** 0.52
7740 M 39.888120444855694 44.99176062673623 21.992279842743212 M 0.0 **** -1.04
7741 O 49.62889942648173 10.167605409661435 17.568318817208265 O 0.0 **** 0.0
7742 H 49.77844849712103 10.03819383245045 18.504864624928402 H 0.0 **** 0.52
7743 H 49.196347549596354 11.019489112789723 17.50982098524122 H 0.0 **** 0.52
7744 M 49.592671187214506 10.260090679061255 17.680719909287717 M 0.0 **** -1.04
7745 O 7.960323473225969 12.834179007420154 16.393617682820523 O 0.0 **** 0.0
7746 H 8.660384115229832 12.559620202610516 15.801367749242251 H 0.0 **** 0.52
7747 H 7.225826230747977 13.043054515611315 15.816457331357498 H 0.0 **** 0.52
7748 M 7.9559153871142385 12.825770141253905 16.243918131593237 M 0.0 **** -1.04
7749 O 19.043385137488986 9.707331103553315 3.3937852387194094 O 0.0 **** 0.0
7750 H 19.28398929069828 10.276672705144449 2.662902800551774 H 0.0 **** 0.52
7751 H 19.174781580426338 8.819877440596017 3.0600350466297366 H 0.0 **** 0.52
7752 M 19.091005225972506 9.66660883859501 3.2574987827838227 M 0.0 **** -1.04
7753 O 38.89924703066693 45.834175552137424 19.49213730398509 O 0.0 **** 0.0
7754 H 39.253072954718725 45.32515149595834 20.221471945768556 H 0.0 **** 0.52
7755 H 39.652203777165916 45.99334547013349 18.9229722387322 H 0.0 **** 0.52
7756 M 39.04092862577986 45.789390086818 19.512641153583758 M 0.0 **** -1.04
7757 O 48.077768501103314 14.120419579456915 36.12692321568841 O 0.0 **** 0.0
7758 H 48.797693564474194 14.158553777200272 36.756591622882425 H 0.0 **** 0.52
7759 H 47.505282891512465 13.428669522991406 36.45853968318163 H 0.0 **** 0.52
7760 M 48.0966428301862 14.036748224808232 36.24997997661577 M 0.0 **** -1.04
7761 O 25.743151552506404 35.1712282846287 15.473246790611078 O 0.0 **** 0.0
7762 H 26.65066411360266 35.45885292858195 15.572858058559149 H 0.0 **** 0.52
7763 H 25.226910842702395 35.97314401003443 15.554829072229026 H 0.0 **** 0.52
7764 M 25.793239240026864 35.31070372182924 15.496441044308241 M 0.0 **** -1.04
7765 O 3.649036207510605 40.45232073931166 19.41971120418404 O 0.0 **** 0.0
7766 H 3.1892183675170713 40.33965824255036 18.587783635485465 H 0.0 **** 0.52
7767 H 3.4304226653778613 39.66794550275027 19.92289343941792 H 0.0 **** 0.52
7768 M 3.5621889921086947 40.337488704409814 19.377627630604508 M 0.0 **** -1.04
7769 O 27.226286715306713 25.839344381362565 3.9383727025284614 O 0.0 **** 0.0
7770 H 27.210094392267365 26.42899201867015 3.184528370247989 H 0.0 **** 0.52
7771 H 26.92940149619572 26.37866431245908 4.671327002325313 H 0.0 **** 0.52
7772 M 27.186209286093042 25.983866410080033 3.9356989564642646 M 0.0 **** -1.04
7773 O 32.37936773690408 4.791230862751014 9.52614563020267 O 0.0 **** 0.0
7774 H 32.25742832267982 4.0601084247039765 8.920489140978091 H 0.0 **** 0.52
7775 H 33.11533824685282 4.525832374513449 10.077633620488086 H 0.0 **** 0.52
7776 M 32.45797102717973 4.663663411547333 9.519211256745841 M 0.0 **** -1.04
7777 O 27.60046395230756 9.030284817963144 45.19063573901918 O 0.0 **** 0.0
7778 H 27.591369536378846 9.969589773110474 45.006644023144865 H 0.0 **** 0.52
7779 H 27.00759670525269 8.65270949532915 44.54088685224891 H 0.0 **** 0.52
7780 M 27.523405355159152 9.102193027669932 45.083906703943065 M 0.0 **** -1.04
7781 O 42.14001705670412 26.608725558478614 21.76217164634683 O 0.0 **** 0.0
7782 H 41.99748537338689 26.807736422555646 20.83680250156445 H 0.0 **** 0.52
7783 H 42.383158809361866 25.68299647718966 21.773877951983422 H 0.0 **** 0.52
7784 M 42.152896472382885 26.515696811115806 21.645211548903788 M 0.0 **** -1.04
7785 O 18.062183276628165 37.87993946602174 6.937452632478816 O 0.0 **** 0.0
7786 H 18.001738987949466 36.9939550709857 7.29467443598471 H 0.0 **** 0.52
7787 H 17.41561924012292 37.89885058650983 6.231884817835045 H 0.0 **** 0.52
7788 M 17.971677939570757 37.768942958195446 6.892860495049675 M 0.0 **** -1.04
7789 O 16.541979429912242 45.677477341055216 10.517198291165812 O 0.0 **** 0.0
7790 H 16.838261030998048 46.4771980569584 10.95181622742981 H 0.0 **** 0.52
7791 H 17.303836128839627 45.09826660155076 10.535062601177714 H 0.0 **** 0.52
7792 M 16.677434209160587 45.70570549069612 10.575121395197215 M 0.0 **** -1.04
7793 O 26.327256001537595 36.91642681415734 38.231393915084375 O 0.0 **** 0.0
7794 H 25.37261585513308 36.88382813074056 38.29326812183916 H 0.0 **** 0.52
7795 H 26.573294097429155 36.06624395929519 37.866861189736184 H 0.0 **** 0.52
7796 M 26.23654581531936 36.8034191145435 38.192649868544954 M 0.0 **** -1.04
7797 O 11.790315973254986 1.4142319395619765 14.296879671581976 O 0.0 **** 0.0
7798 H 12.590281671166476 1.9238388018088628 14.425660464731962 H 0.0 **** 0.52
7799 H 11.221615832868592 1.6729257524459284 15.022060032169279 H 0.0 **** 0.52
7800 M 11.819920849110085 1.5125830556698576 14.406197403903526 M 0.0 **** -1.04
7801 O 45.818189510175465 44.86873992731649 30.325441833697557 O 0.0 **** 0.0
7802 H 44.87565629858919 44.81791544470081 30.484428917564536 H 0.0 **** 0.52
7803 H 46.21302235875757 44.43791707608065 31.083549660390016 H 0.0 **** 0.52
7804 M 45.748076463124555 44.80708250435962 30.442841766936777 M 0.0 **** -1.04
7805 O 34.136114590114424 17.013746415912006 38.15309778766227 O 0.0 **** 0.0
7806 H 34.84833851108946 16.920623072238456 37.52041084953647 H 0.0 **** 0.52
7807 H 33.48832198824869 17.55901661173438 37.70669647723087 H 0.0 **** 0.52
7808 M 34.14436249147471 17.07162703930841 38.01496098002444 M 0.0 **** -1.04
7809 O 33.47814479247864 14.018536077889966 5.237455253556405 O 0.0 **** 0.0
7810 H 33.63074416860023 13.837037957846881 6.164817325623687 H 0.0 **** 0.52
7811 H 33.53701277184834 14.971285947872136 5.166523934749485 H 0.0 **** 0.52
7812 M 33.50521585591641 14.117265551634494 5.347089093407391 M 0.0 **** -1.04
7813 O 41.95011980124095 30.96316754498936 35.94337088073343 O 0.0 **** 0.0
7814 H 41.94775327464554 30.4277783921517 36.73683267152439 H 0.0 **** 0.52
7815 H 42.85080253141106 31.278648500239928 35.86941350517108 H 0.0 **** 0.52
7816 M 42.06511550701546 30.935016826878883 36.03547617900272 M 0.0 **** -1.04
7817 O 37.43931769649746 34.79841879566791 4.920099379010459 O 0.0 **** 0.0
7818 H 37.745922860809834 35.6214847057592 5.300606613564774 H 0.0 **** 0.52
7819 H 36.55334458135927 34.689588473197475 5.2656946100205175 H 0.0 **** 0.52
7820 M 37.36515095510909 34.88984986848304 5.013050312742813 M 0.0 **** -1.04
7821 O 25.002602392297682 12.224633990708178 5.170986602407278 O 0.0 **** 0.0
7822 H 24.08676824660343 12.382039066567273 5.400551973107838 H 0.0 **** 0.52
7823 H 25.295798348636566 13.046118536675841 4.776743864199663 H 0.0 **** 0.52
7824 M 24.922896886137618 12.34994381965354 5.149906336126524 M 0.0 **** -1.04
7825 O 26.549268790384602 14.452965734660076 8.419472257026058 O 0.0 **** 0.0
7826 H 27.389172218831902 14.63045216069341 7.996046351632572 H 0.0 **** 0.52
7827 H 26.699127376632333 14.653569402382697 9.343338442524242 H 0.0 **** 0.52
7828 M 26.6759710095819 14.501366195874565 8.483535036318727 M 0.0 **** -1.04
7829 O 39.19562435606229 18.52678517939134 48.98739485664077 O 0.0 **** 0.0
7830 H 39.52704223986487 19.420988960745774 48.90499252489844 H 0.0 **** 0.52
7831 H 39.639333546886775 18.17662223236009 49.759882285168636 H 0.0 **** 0.52
7832 M 39.29485046166617 18.59642954213443 49.07573417526392 M 0.0 **** -1.04
7833 O 0.18900181024843743 45.483614481592696 11.744250967468808 O 0.0 **** 0.0
7834 H 1.1455372083585649 45.50932761738918 11.719629096784026 H 0.0 **** 0.52
7835 H -0.07892185160834231 46.393522628476475 11.615749252363571 H 0.0 **** 0.52
7836 M 0.27715312625266164 45.6033851780018 11.724648998960362 M 0.0 **** -1.04
7837 O 16.304993055610577 48.08043916568378 17.211245263586704 O 0.0 **** 0.0
7838 H 16.38885593304036 48.02243646345022 18.16299719582004 H 0.0 **** 0.52
7839 H 15.922053480689174 47.24219239715982 16.952539745974008 H 0.0 **** 0.52
7840 M 16.266707008715105 47.96570821318021 17.299963804888634 M 0.0 **** -1.04
7841 O 35.94833017444201 36.86602075836731 27.692856746539093 O 0.0 **** 0.0
7842 H 36.09384749477445 36.425809026169645 26.855440445806863 H 0.0 **** 0.52
7843 H 35.00599514432268 37.03245675090602 27.71593400482277 H 0.0 **** 0.52
7844 M 35.8463275861085 36.8309742450202 27.58861126641905 M 0.0 **** -1.04
7845 O 11.459494296702804 28.005474877843902 4.3957952650758045 O 0.0 **** 0.0
7846 H 12.188370992675527 28.46027967299443 4.817838037515515 H 0.0 **** 0.52
7847 H 11.872412803063304 27.45948024417759 3.726754697500682 H 0.0 **** 0.52
7848 M 11.60565848000671 27.993801376442722 4.36417607884133 M 0.0 **** -1.04
7849 O 8.607249129089453 40.62628127559774 39.356507108943426 O 0.0 **** 0.0
7850 H 8.426663482759558 39.89780597401148 38.76241883490363 H 0.0 **** 0.52
7851 H 9.219657545007337 40.26650820850841 39.99818269305135 H 0.0 **** 0.52
7852 M 8.662527859591933 40.48697261115967 39.36259913590666 M 0.0 **** -1.04
7853 O 46.883732461851935 42.06150994103808 35.01051861273474 O 0.0 **** 0.0
7854 H 47.26157350961457 41.18792519488629 34.90896058584037 H 0.0 **** 0.52
7855 H 47.528761657490165 42.543266461040574 35.52827925572965 H 0.0 **** 0.52
7856 M 47.01467286455823 42.01135159517561 35.063797499073104 M 0.0 **** -1.04
7857 O 34.5155511239205 39.43577724115584 16.049280309604796 O 0.0 **** 0.0
7858 H 33.70462955596878 39.73532501651183 16.460262203146144 H 0.0 **** 0.52
7859 H 35.0627816884066 39.14785359516896 16.779942098581536 H 0.0 **** 0.52
7860 M 34.48179547461353 39.4372653852447 16.195425221131103 M 0.0 **** -1.04
7861 O 24.134163780226096 17.262607156656884 2.6675524060014597 O 0.0 **** 0.0
7862 H 23.3579750127716 17.432790607067417 2.133886718921792 H 0.0 **** 0.52
7863 H 24.437790723896217 18.13063276357431 2.933203591640744 H 0.0 **** 0.52
7864 M 24.073670021763828 17.395510394257727 2.633242705866782 M 0.0 **** -1.04
7865 O 16.808275206027133 13.10387439831058 47.27286519614008 O 0.0 **** 0.0
7866 H 16.97549888066014 14.005164332145881 47.54843727573941 H 0.0 **** 0.52
7867 H 17.288500167285417 13.011485353397553 46.45001769158845 H 0.0 **** 0.52
7868 M 16.891156201372006 13.207424003187384 47.202806615434305 M 0.0 **** -1.04
7869 O 3.1065646255042227 42.96281525197838 38.02634557656039 O 0.0 **** 0.0
7870 H 3.816894764848701 42.32319605425047 37.975888499816584 H 0.0 **** 0.52
7871 H 3.401722562326916 43.59830896171582 38.67846392405222 H 0.0 **** 0.52
7872 M 3.2352794877891373 42.96228755876243 38.10336562424825 M 0.0 **** -1.04
7873 O 35.91233417333041 48.87770927530185 27.103338437504163 O 0.0 **** 0.0
7874 H 35.798939621955974 48.62772848054042 28.02033388625791 H 0.0 **** 0.52
7875 H 36.32603078379458 49.74015178869228 27.139093537396572 H 0.0 **** 0.52
7876 M 35.950776610001235 48.956112396251655 27.22530293926242 M 0.0 **** -1.04
7877 O 29.539447706639038 33.7148346294812 40.59242831656526 O 0.0 **** 0.0
7878 H 30.098075296586416 33.78365710680366 39.81820189143461 H 0.0 **** 0.52
7879 H 28.867426412040857 33.07865453868126 40.3477001568672 H 0.0 **** 0.52
7880 M 29.52493210695323 33.64220528225165 40.46198930191564 M 0.0 **** -1.04
7881 O 49.671592349145584 20.426116337545118 41.73041164882177 O 0.0 **** 0.0
7882 H 49.41389449423847 20.885655082707665 42.52956313241953 H 0.0 **** 0.52
7883 H 50.427834521476214 19.899646562630515 41.989557459015195 H 0.0 **** 0.52
7884 M 49.735412818635375 20.4175479276112 41.86588666777103 M 0.0 **** -1.04
7885 O 15.322469650718034 16.979883424393144 46.989851655678656 O 0.0 **** 0.0
7886 H 14.688781938631237 16.601371735134904 47.599274914482464 H 0.0 **** 0.52
7887 H 15.081796400610898 17.904829721966514 46.937134479111954 H 0.0 **** 0.52
7888 M 15.210540593829123 17.04983363874564 47.06111637331648 M 0.0 **** -1.04
7889 O 7.531716487967396 2.8994263917898366 6.847148457373798 O 0.0 **** 0.0
7890 H 7.10771935650683 2.4715662197771824 6.1032465279562516 H 0.0 **** 0.52
7891 H 7.136050932072071 2.4903206319978732 7.616765523080971 H 0.0 **** 0.52
7892 M 7.426789418350119 2.792284782981173 6.850439912434048 M 0.0 **** -1.04
7893 O 18.15616838616513 9.987969238976932 0.6136036163944976 O 0.0 **** 0.0
7894 H 18.359321902231883 10.639781167455787 -0.0572899406789773 H 0.0 **** 0.52
7895 H 17.200461765313108 9.988381299301587 0.6670134342300345 H 0.0 **** 0.52
7896 M 18.059831931699602 10.071462081446096 0.5345575445476725 M 0.0 **** -1.04
7897 O 16.0772558302448 12.057543050623723 21.33537676761231 O 0.0 **** 0.0
7898 H 15.738682484044176 11.314277999903823 20.836224138520446 H 0.0 **** 0.52
7899 H 15.556734545080124 12.803641598449461 21.03767916198992 H 0.0 **** 0.52
7900 M 15.967281200435414 12.057905484206307 21.23336976202349 M 0.0 **** -1.04
7901 O 35.23541448191442 8.909018425053844 21.14347734647384 O 0.0 **** 0.0
7902 H 34.79288963487597 8.249140405655197 21.677295502519595 H 0.0 **** 0.52
7903 H 34.715928300810994 9.703760237329135 21.264921935542066 H 0.0 **** 0.52
7904 M 35.11226530965615 8.92628292922646 21.227360130552444 M 0.0 **** -1.04
7905 O 17.353967476318783 4.957019882059113 20.584001105758333 O 0.0 **** 0.0
7906 H 17.13332996629608 4.108681552106481 20.968540404054295 H 0.0 **** 0.52
7907 H 18.224502912667532 5.157293049230192 20.92793181698829 H 0.0 **** 0.52
7908 M 17.437163338954544 4.874058651760591 20.67725468388616 M 0.0 **** -1.04
7909 O 21.84967252305071 23.48324826748515 11.527856041536992 O 0.0 **** 0.0
7910 H 21.710682223591903 24.2787700083781 11.013992371744095 H 0.0 **** 0.52
7911 H 22.133199111952454 23.798380696290444 12.386070792758403 H 0.0 **** 0.52
7912 M 21.86817510241243 23.625426221162325 11.571937121777097 M 0.0 **** -1.04
7913 O 34.94178272975386 40.514314710424266 6.822838486773449 O 0.0 **** 0.0
7914 H 35.14701338601771 40.10345849269898 7.66266305474344 H 0.0 **** 0.52
7915 H 34.32254550368526 41.21075555836136 7.041341791159333 H 0.0 **** 0.52
7916 M 34.88878506471974 40.55087312524691 6.95831773856348 M 0.0 **** -1.04
7917 O 15.164798050947574 40.263903307752294 14.551104284324332 O 0.0 **** 0.0
7918 H 15.266554038472679 39.60716102374345 13.862218558762862 H 0.0 **** 0.52
7919 H 14.425842783315032 40.80033078747697 14.264016568211176 H 0.0 **** 0.52
7920 M 15.08322930607819 40.24850151952356 14.42616712001449 M 0.0 **** -1.04
7921 O 29.88648679087573 21.108742562648185 9.263916045927154 O 0.0 **** 0.0
7922 H 29.67222751550017 20.189455715714264 9.422767668708161 H 0.0 **** 0.52
7923 H 30.391797947727113 21.100386772607912 8.451008056395965 H 0.0 **** 0.52
7924 M 29.92374484767976 20.98999241397175 9.180189044395268 M 0.0 **** -1.04
7925 O 37.50313347343933 28.563081329525307 48.41242240789299 O 0.0 **** 0.0
7926 H 37.88786405360536 27.82371105211172 47.941739172024164 H 0.0 **** 0.52
7927 H 37.788540791809815 29.334226073405887 47.92241428803537 H 0.0 **** 0.52
7928 M 37.588919232489594 28.567148392497092 48.28944205099008 M 0.0 **** -1.04
7929 O 10.621089023091743 45.553358896812576 9.77277949894181 O 0.0 **** 0.0
7930 H 11.435942254399611 46.055398021856874 9.786916281904997 H 0.0 **** 0.52
7931 H 9.966909308704759 46.166990611885964 9.438514349592792 H 0.0 **** 0.52
7932 M 10.641656834523255 45.696178139238825 9.731799450043571 M 0.0 **** -1.04
7933 O 25.650758141590273 14.389654733528149 16.15323604702992 O 0.0 **** 0.0
7934 H 24.831325316102348 13.894946852739151 16.148401544403242 H 0.0 **** 0.52
7935 H 26.091260804382912 14.11649425740278 16.957953633609876 H 0.0 **** 0.52
7936 M 25.602250255172674 14.291357898566645 16.255631184228108 M 0.0 **** -1.04
7937 O 11.382844740789068 26.24033461127852 8.20717157045629 O 0.0 **** 0.0
7938 H 12.081171620950599 25.59083158960986 8.125233184750375 H 0.0 **** 0.52
7939 H 10.986308350225684 26.060142627534663 9.059532135943908 H 0.0 **** 0.52
7940 M 11.4214775322353 26.134123507992427 8.30579594059787 M 0.0 **** -1.04
7941 O 9.905453152791374 46.69063004507836 19.967889468639953 O 0.0 **** 0.0
7942 H 10.218125299161223 47.54204746806498 19.662025997276743 H 0.0 **** 0.52
7943 H 8.961339919756561 46.80612756933293 20.075311621163024 H 0.0 **** 0.52
7944 M 9.82462064123186 46.81440646484497 19.942486752274533 M 0.0 **** -1.04
7945 O 37.02645103473687 11.362386561238075 25.83124784266451 O 0.0 **** 0.0
7946 H 37.05002455712249 11.176665035330394 26.769960112873576 H 0.0 **** 0.52
7947 H 37.35447232194039 10.56265922289947 25.420070769888767 H 0.0 **** 0.52
7948 M 37.071459790727246 11.236237068204936 25.898779484297805 M 0.0 **** -1.04
7949 O 23.602907522290646 7.864099173418005 18.9236814903131 O 0.0 **** 0.0
7950 H 22.93394986555435 7.27648688157882 19.27501403837273 H 0.0 **** 0.52
7951 H 23.259541653520014 8.742784701617957 19.085669483346663 H 0.0 **** 0.52
7952 M 23.473317598415463 7.901360753098377 18.989392763811196 M 0.0 **** -1.04
7953 O 38.59839081800672 23.931041945954505 15.459881637090291 O 0.0 **** 0.0
7954 H 38.43781410059668 24.12012307698898 16.384377270769747 H 0.0 **** 0.52
7955 H 37.89201838455311 24.38123297769457 14.9966376578747 H 0.0 **** 0.52
7956 M 38.48741045711268 24.012876948578814 15.518927171081685 M 0.0 **** -1.04
7957 O 19.106516051895422 19.224313428567697 7.379371963773801 O 0.0 **** 0.0
7958 H 18.335084925747914 19.47972430879399 6.8735179145669605 H 0.0 **** 0.52
7959 H 19.711841499933442 19.95931397313214 7.281475275578215 H 0.0 **** 0.52
7960 M 19.085252256611312 19.351098115944353 7.302084063738134 M 0.0 **** -1.04
7961 O 12.686930772197755 0.9657189847054735 20.445612470026937 O 0.0 **** 0.0
7962 H 13.588891544375294 0.7600337406281265 20.199870550748493 H 0.0 **** 0.52
7963 H 12.341530004051961 1.4578092250077739 19.700780484923964 H 0.0 **** 0.52
7964 M 12.758176935020394 1.0023826415908494 20.318806244517937 M 0.0 **** -1.04
7965 O 22.424524328116696 37.65551626639938 21.88915881361164 O 0.0 **** 0.0
7966 H 22.826232599527934 36.969156925768836 21.35645720071828 H 0.0 **** 0.52
7967 H 22.53869766074634 37.35680708466863 22.791360025118355 H 0.0 **** 0.52
7968 M 22.49056395784648 37.52941508262221 21.93645928850517 M 0.0 **** -1.04
7969 O 38.08715253391543 13.654555615462144 24.817100568306696 O 0.0 **** 0.0
7970 H 37.84442971081028 13.252335229932903 25.651086281025602 H 0.0 **** 0.52
7971 H 38.77932499506992 13.09102919189688 24.47132184780793 H 0.0 **** 0.52
7972 M 38.14468818555562 13.530928039880763 24.879597421309086 M 0.0 **** -1.04
7973 O 7.219516943489052 29.507769085859753 28.300952654184094 O 0.0 **** 0.0
7974 H 6.517303005495908 29.19709125369852 27.72946086338322 H 0.0 **** 0.52
7975 H 7.986074602119646 28.998433144811038 28.0379039393805 H 0.0 **** 0.52
7976 M 7.22775399326061 29.402797212278113 28.19412069296077 M 0.0 **** -1.04
7977 O 18.57535283192817 48.73664168421563 29.602862270775354 O 0.0 **** 0.0
7978 H 18.657300046298342 49.406924487591326 30.28126769958385 H 0.0 **** 0.52
7979 H 18.65398097358501 47.90725580962439 30.074204621440103 H 0.0 **** 0.52
7980 M 18.595908528086024 48.71627437182735 29.750043977272952 M 0.0 **** -1.04
7981 O 49.058192586748746 24.175773439789143 17.722340697849063 O 0.0 **** 0.0
7982 H 49.866527312218054 23.676122065716907 17.607568594608665 H 0.0 **** 0.52
7983 H 49.35181453980284 25.063513726179046 17.927111457800528 H 0.0 **** 0.52
7984 M 49.199257413790775 24.225453529161843 17.73386198638481 M 0.0 **** -1.04
7985 O 6.531753582131541 32.26640533865151 3.4490950117168993 O 0.0 **** 0.0
7986 H 5.597766076848005 32.398951603937135 3.2868400112078078 H 0.0 **** 0.52
7987 H 6.907398797378985 32.11795575667284 2.5812917660337646 H 0.0 **** 0.52
7988 M 6.46027859251228 32.264369073813455 3.3172346851837133 M 0.0 **** -1.04
7989 O 20.228476398695665 2.6147302886628307 31.334390290007292 O 0.0 **** 0.0
7990 H 19.942670252839054 2.9869229990520214 30.500114308026028 H 0.0 **** 0.52
7991 H 20.05827779794903 3.3045559403028486 31.975796468397675 H 0.0 **** 0.52
7992 M 20.170101893646972 2.750682122543904 31.309700680984548 M 0.0 **** -1.04
7993 O 7.696155863634887 25.424428384890348 5.905363104294082 O 0.0 **** 0.0
7994 H 7.08620834398751 26.13033941290165 5.691160217158689 H 0.0 **** 0.52
7995 H 8.522275398888063 25.86986678062745 6.093353182751294 H 0.0 **** 0.52
7996 M 7.723828779454416 25.571815379458485 5.902008055681222 M 0.0 **** -1.04
7997 O 21.942976831210846 49.253530946947244 21.97812849684962 O 0.0 **** 0.0
7998 H 22.883883714074596 49.290495826645184 21.806204833717132 H 0.0 **** 0.52
7999 H 21.87137163139791 48.82233490695586 22.82969795045034 H 0.0 **** 0.52
8000 M 22.054258615829617 49.20306455428661 22.06513120711712 M 0.0 **** -1.04
8001 O 8.666439650227636 48.08186231664604 33.091072328256445 O 0.0 **** 0.0
8002 H 9.264122317581743 48.43048881783236 32.42966145884063 H 0.0 **** 0.52
8003 H 7.970936692248255 47.659281236729456 32.58715616197401 H 0.0 **** 0.52
8004 M 8.653917272534512 48.07239545745554 32.94189612556987 M 0.0 **** -1.04
8005 O 39.52363091715927 2.399038508437017 5.2983689982107505 O 0.0 **** 0.0
8006 H 39.76659885319281 3.0944247649910133 4.687112769795566 H 0.0 **** 0.52
8007 H 40.004016183228764 1.6304034991618084 4.99070305490084 H 0.0 **** 0.52
8008 M 39.61622949094018 2.3896617596367684 5.180734851927973 M 0.0 **** -1.04
8009 O 38.96176900327441 40.38392211315875 33.09498830252359 O 0.0 **** 0.0
8010 H 39.74479540988129 39.90625488203848 33.36872630573977 H 0.0 **** 0.52
8011 H 38.23656826330017 39.794141080102676 33.301077081540654 H 0.0 **** 0.52
8012 M 38.96917118783492 40.247274567741044 33.156412333293844 M 0.0 **** -1.04
8013 O 28.85994239895312 9.16294928356693 21.701853296790745 O 0.0 **** 0.0
8014 H 28.386923435990628 9.546996818241716 20.96361886867581 H 0.0 **** 0.52
8015 H 28.61288081072782 9.703215934213691 22.45238685924855 H 0.0 **** 0.52
8016 M 28.767763224212562 9.281273259423942 21.703427406234923 M 0.0 **** -1.04
8017 O 3.219768337900275 26.306163241719396 4.596801471596867 O 0.0 **** 0.0
8018 H 3.4638481109646215 25.42229552253107 4.871450541036571 H 0.0 **** 0.52
8019 H 2.4457559398095507 26.514851248199992 5.119852229969716 H 0.0 **** 0.52
8020 M 3.1519311632670615 26.219731594121555 4.69891728763099 M 0.0 **** -1.04
8021 O 20.086163291317373 35.14478806788641 24.539134472693547 O 0.0 **** 0.0
8022 H 20.695718821480714 34.445403764119156 24.30347996998927 H 0.0 **** 0.52
8023 H 20.245267579735422 35.830474792055945 23.890483504823962 H 0.0 **** 0.52
8024 M 20.184560592931646 35.143035078088616 24.42593180136558 M 0.0 **** -1.04
8025 O 4.009631029873319 47.384600071597745 9.128936451103842 O 0.0 **** 0.0
8026 H 4.380954390324969 48.04675618914002 8.54592859691958 H 0.0 **** 0.52
8027 H 3.082654474051848 47.61433317122005 9.193478653774621 H 0.0 **** 0.52
8028 M 3.938500359168618 47.49877293981836 9.062565646065902 M 0.0 **** -1.04
8029 O 33.37661930245301 28.578046053088627 20.921060109470005 O 0.0 **** 0.0
8030 H 32.55754060642619 28.88406090980195 20.53158161930685 H 0.0 **** 0.52
8031 H 33.22378788506871 28.619770531843294 21.86505731771271 H 0.0 **** 0.52
8032 M 33.25220286777572 28.622561277798937 20.992046163376287 M 0.0 **** -1.04
8033 O 24.543135325527494 25.346059878782697 6.691157857178128 O 0.0 **** 0.0
8034 H 24.312291872613493 24.43894265364871 6.490960708382528 H 0.0 **** 0.52
8035 H 23.80992670845898 25.860422874213697 6.353424483014912 H 0.0 **** 0.52
8036 M 24.41972417393606 25.29578226848301 6.622295962930089 M 0.0 **** -1.04
8037 O 24.37105732477574 36.19284036744927 44.66525877003778 O 0.0 **** 0.0
8038 H 25.051451515165912 35.60297842976452 44.98984233135195 H 0.0 **** 0.52
8039 H 24.6639407928418 37.06517212871197 44.92886025273887 H 0.0 **** 0.52
8040 M 24.495648798475607 36.228999898933736 44.74055358426907 M 0.0 **** -1.04
8041 O 3.052702370792512 46.954051532551595 15.95441104499345 O 0.0 **** 0.0
8042 H 2.2404415976457512 47.06309301923955 15.459869200557819 H 0.0 **** 0.52
8043 H 2.843175454015838 46.2969797266983 16.618176714708767 H 0.0 **** 0.52
8044 M 2.92190073356106 46.88389691063346 15.976074164600107 M 0.0 **** -1.04
8045 O 28.392910394839408 2.871079053823074 5.275583150333468 O 0.0 **** 0.0
8046 H 28.745376197917846 3.7608887036359704 5.290923583267919 H 0.0 **** 0.52
8047 H 28.88352572662105 2.4068810475977145 5.95384951397218 H 0.0 **** 0.52
8048 M 28.500835511194936 2.925562370288354 5.364373573959007 M 0.0 **** -1.04
8049 O 7.745585128187594 6.329237704680857 45.4529685985567 O 0.0 **** 0.0
8050 H 8.33378124260865 6.029027801936451 44.760055848674604 H 0.0 **** 0.52
8051 H 8.324173490481762 6.728307861101499 46.10274278595195 H 0.0 **** 0.52
8052 M 7.894948708085054 6.341893422274552 45.447446488325795 M 0.0 **** -1.04
8053 O 38.98067386608594 39.036566103701176 41.01425117097716 O 0.0 **** 0.0
8054 H 39.43583037370932 38.198438288210305 40.9329942475211 H 0.0 **** 0.52
8055 H 38.606013615431806 39.191255470217015 40.14711241674247 H 0.0 **** 0.52
8056 M 38.99097836073422 38.949077025961806 40.8928449618264 M 0.0 **** -1.04
8057 O 31.317342866039034 4.792972297940338 16.935967658467924 O 0.0 **** 0.0
8058 H 31.743700192099325 5.515529717742538 17.396791014964215 H 0.0 **** 0.52
8059 H 32.03828523636742 4.297260188161694 16.547713225236194 H 0.0 **** 0.52
8060 M 31.464211464906985 4.822011342076728 16.945257017983646 M 0.0 **** -1.04
8061 O 38.89784005635114 41.46365541964766 20.4250703969309 O 0.0 **** 0.0
8062 H 39.0313630555219 42.1040738686473 19.726310917764508 H 0.0 **** 0.52
8063 H 38.00414323729023 41.1472554569805 20.29306504650456 H 0.0 **** 0.52
8064 M 38.800528247670336 41.505134270459735 20.318722200225015 M 0.0 **** -1.04
8065 O 45.24682884229577 13.363878226018088 7.2719608799724895 O 0.0 **** 0.0
8066 H 45.232411147673574 13.101280314253728 8.192321191291846 H 0.0 **** 0.52
8067 H 46.03909910395287 12.958793575706792 6.919196548790808 H 0.0 **** 0.52
8068 M 45.34640375441454 13.278406594175777 7.344619518713898 M 0.0 **** -1.04
8069 O 23.76597216363355 12.754461478508665 14.833865385176836 O 0.0 **** 0.0
8070 H 23.640924039982544 11.828356657164193 14.626692325406836 H 0.0 **** 0.52
8071 H 22.881965191812164 13.12155566690392 14.835284807308781 H 0.0 **** 0.52
8072 M 23.63680059596325 12.682901249046274 14.807525941847913 M 0.0 **** -1.04
8073 O 44.8366414143565 29.828016554321504 8.570610367618617 O 0.0 **** 0.0
8074 H 45.49554371163526 29.174334883311193 8.33656706826741 H 0.0 **** 0.52
8075 H 44.09107706651464 29.315823275679072 8.883692282888255 H 0.0 **** 0.52
8076 M 44.825547340004405 29.67876976561951 8.580727871035716 M 0.0 **** -1.04
8077 O 19.1461614139104 43.017906421610455 13.39559954337953 O 0.0 **** 0.0
8078 H 19.206253543843044 43.39063529174144 12.516002343560876 H 0.0 **** 0.52
8079 H 19.85575772828338 42.37660638422188 13.43348936950027 H 0.0 **** 0.52
8080 M 19.244691793403838 42.98352549019454 13.287850023687458 M 0.0 **** -1.04
8081 O 19.83004469151403 15.61529287998447 6.610960872905846 O 0.0 **** 0.0
8082 H 19.072227801721297 15.726378515065548 7.185071548857399 H 0.0 **** 0.52
8083 H 20.55344562948587 16.02339648769295 7.086744810678885 H 0.0 **** 0.52
8084 M 19.825639180415486 15.681755471323163 6.7453604917501995 M 0.0 **** -1.04
8085 O 3.3999976832839636 32.89514647855426 39.98396413554393 O 0.0 **** 0.0
8086 H 4.091046502491757 32.2631456927738 39.78583526640555 H 0.0 **** 0.52
8087 H 2.7701368737339607 32.79362092016551 39.2703844533188 H 0.0 **** 0.52
8088 M 3.407830035467775 32.80124603617259 39.86725363498469 M 0.0 **** -1.04
8089 O 32.82638266665713 35.60817034875326 16.216046771113604 O 0.0 **** 0.0
8090 H 32.558958693323575 35.76031309669477 17.122448888661374 H 0.0 **** 0.52
8091 H 33.378044632187084 34.82697702408208 16.25649651590381 H 0.0 **** 0.52
8092 M 32.8627684135773 35.527643712419106 16.337255810792012 M 0.0 **** -1.04
8093 O 42.50514004340923 2.0493002069279984 3.9001028043070156 O 0.0 **** 0.0
8094 H 41.996785259360394 1.383631238219083 4.363447598754636 H 0.0 **** 0.52
8095 H 43.39023991089279 1.6875621077708745 3.8557036782028224 H 0.0 **** 0.52
8096 M 42.55336776618671 1.9177795283693422 3.9537331371529922 M 0.0 **** -1.04
8097 O 19.224922982285683 0.6777162406708308 2.3224601819457185 O 0.0 **** 0.0
8098 H 18.684151365323917 0.004714956325678088 1.9091022942878055 H 0.0 **** 0.52
8099 H 18.951653023939183 1.4947897357238187 1.9053956189787007 H 0.0 **** 0.52
8100 M 19.120715086953926 0.6961595618585867 2.216156075980408 M 0.0 **** -1.04
8101 O 19.339263149310657 42.51784558838859 0.2335016803417625 O 0.0 **** 0.0
8102 H 19.3011996941739 41.60170745865673 -0.0412171705503539 H 0.0 **** 0.52
8103 H 18.447627722992255 42.72081410183775 0.5163749663608781 H 0.0 **** 0.52
8104 M 19.220250621447033 42.426550808543055 0.23454597793578563 M 0.0 **** -1.04
8105 O 44.558417011255976 19.392017980965367 37.350738489308746 O 0.0 **** 0.0
8106 H 45.20242484469427 19.43988781115369 36.64420250172314 H 0.0 **** 0.52
8107 H 44.379925636542325 20.3052827810487 37.575051811020366 H 0.0 **** 0.52
8108 M 44.61800876090812 19.51505570713283 37.289007173520645 M 0.0 **** -1.04
8109 O 45.16954992961247 18.359902500245923 24.10947638237502 O 0.0 **** 0.0
8110 H 44.33966575116672 18.17841250260689 23.668360180375757 H 0.0 **** 0.52
8111 H 45.217063526955755 17.70822934361499 24.808972360096135 H 0.0 **** 0.52
8112 M 45.0693962309291 18.253247467497772 24.142552359511413 M 0.0 **** -1.04
8113 O 23.94765850306241 0.9273402866799216 33.873551906108105 O 0.0 **** 0.0
8114 H 23.525713857812622 0.9432483795954454 33.014517713582926 H 0.0 **** 0.52
8115 H 23.975182855696914 0.00028549901176688763 34.110278116019806 H 0.0 **** 0.52
8116 M 23.897167880962265 0.8107029963368007 33.79388886346996 M 0.0 **** -1.04
8117 O 16.351995719144256 11.290795893358592 32.44655450117495 O 0.0 **** 0.0
8118 H 17.165485419670937 11.506731087811595 31.990664525589015 H 0.0 **** 0.52
8119 H 15.941147356002812 12.13804062910406 32.61862697099159 H 0.0 **** 0.52
8120 M 16.40353970094649 11.426896169793608 32.410222521222174 M 0.0 **** -1.04
8121 O 40.483543108676756 25.87118211909086 3.9445249069929105 O 0.0 **** 0.0
8122 H 39.74887164146734 25.924066614082506 4.555826134524764 H 0.0 **** 0.52
8123 H 40.85136558258548 24.99891694088565 4.0862539325783445 H 0.0 **** 0.52
8124 M 40.43658147604506 25.76629109150248 4.040922592551347 M 0.0 **** -1.04
8125 O 44.34098037419064 34.75482968566942 14.562412890983136 O 0.0 **** 0.0
8126 H 43.907809821237095 34.61413162534644 15.404312964257967 H 0.0 **** 0.52
8127 H 45.05643818281966 35.359644452674125 14.758747152022087 H 0.0 **** 0.52
8128 M 44.377116570012156 34.814242637339724 14.695319686138124 M 0.0 **** -1.04
8129 O 5.212427566092529 19.537062976676523 9.43781332935076 O 0.0 **** 0.0
8130 H 4.718339332700374 18.95492224504943 8.860562435131229 H 0.0 **** 0.52
8131 H 5.810019307950327 20.003769786072198 8.85360603335883 H 0.0 **** 0.52
8132 M 5.225677502626091 19.522285849590105 9.289131881126863 M 0.0 **** -1.04
8133 O 15.73783972789505 30.02915133119642 16.087206110821853 O 0.0 **** 0.0
8134 H 16.30182487186478 30.79778492451621 16.001467531493645 H 0.0 **** 0.52
8135 H 14.900482400387048 30.302945865430328 15.712907199051116 H 0.0 **** 0.52
8136 M 15.702843901153699 30.16259523461546 16.0283160827274 M 0.0 **** -1.04
8137 O 38.526584843352225 4.083243153978822 37.883904870486305 O 0.0 **** 0.0
8138 H 38.10554363642567 3.7443078192639967 38.67388985120239 H 0.0 **** 0.52
8139 H 38.3327096383847 5.020567473341231 37.89193655617504 H 0.0 **** 0.52
8140 M 38.44786808329514 4.159844266981988 37.98606099015995 M 0.0 **** -1.04
8141 O 2.1499436819432773 39.478438513591065 32.05144149480748 O 0.0 **** 0.0
8142 H 2.929166052319161 38.963523734660676 31.841908289568885 H 0.0 **** 0.52
8143 H 1.6198926949225552 38.89951122702117 32.599272097955826 H 0.0 **** 0.52
8144 M 2.18184121740844 39.33841292910302 32.09474798787748 M 0.0 **** -1.04
8145 O 28.228394997862395 3.5952764635028984 19.018966370456575 O 0.0 **** 0.0
8146 H 28.597076834766053 3.771726811795446 19.88451116919045 H 0.0 **** 0.52
8147 H 27.610345081766486 2.8786718518009025 19.162911479917568 H 0.0 **** 0.52
8148 M 28.196472461472187 3.526130279872561 19.148193752012446 M 0.0 **** -1.04
8149 O 13.470621961965687 46.91188349216579 30.798458601170626 O 0.0 **** 0.0
8150 H 12.89960908784039 47.377146162188794 30.18714544363523 H 0.0 **** 0.52
8151 H 14.002940901448447 47.59876204158528 31.199785457412485 H 0.0 **** 0.52
8152 M 13.465669088701274 47.05937171116875 30.77157726184844 M 0.0 **** -1.04
8153 O 29.589505577308532 34.02721256541258 33.493148309397014 O 0.0 **** 0.0
8154 H 30.22590168933399 34.23573624917659 34.17706820709128 H 0.0 **** 0.52
8155 H 28.89087776184844 34.67082174413063 33.611112967604925 H 0.0 **** 0.52
8156 M 29.581538527572356 34.13629650745206 33.59579995075079 M 0.0 **** -1.04
8157 O 7.268688616451122 22.897523396902358 11.615116549036806 O 0.0 **** 0.0
8158 H 6.582159755130178 23.521435825123504 11.850996283752117 H 0.0 **** 0.52
8159 H 7.607708201821879 23.218324463913603 10.779424636958368 H 0.0 **** 0.52
8160 M 7.224202865921157 23.01845871967987 11.538333203964584 M 0.0 **** -1.04
8161 O 29.024183895430795 20.873292397802366 38.029670791435834 O 0.0 **** 0.0
8162 H 29.128697554060807 20.693291612649155 37.09537740761841 H 0.0 **** 0.52
8163 H 29.707568231453205 20.353038874801722 38.45222214503521 H 0.0 **** 0.52
8164 M 29.12504491224424 20.783651010942986 37.96416188991638 M 0.0 **** -1.04
8165 O 39.85405466393969 21.661924431943596 40.16997782516835 O 0.0 **** 0.0
8166 H 40.73315017640866 21.478136473449556 39.838855307052704 H 0.0 **** 0.52
8167 H 39.419404023307465 20.809201922891013 40.183080360869496 H 0.0 **** 0.52
8168 M 39.91094916585314 21.529238219319847 40.12926808391911 M 0.0 **** -1.04
8169 O 48.4514991067129 29.349106586220678 1.2805166566199748 O 0.0 **** 0.0
8170 H 47.826897569877985 29.8394485584769 0.7460390795782413 H 0.0 **** 0.52
8171 H 48.42512238813226 29.778864683120055 2.135409188887864 H 0.0 **** 0.52
8172 M 48.36816553905888 29.466890795998204 1.3215340185306834 M 0.0 **** -1.04
8173 O 2.7647979957987476 49.382804070782754 30.51622634854027 O 0.0 **** 0.0
8174 H 3.6559110465456923 49.15864949340107 30.24808411708795 H 0.0 **** 0.52
8175 H 2.7636803670866517 49.266610024627425 31.466346535107228 H 0.0 **** 0.52
8176 M 2.878728490733736 49.33923480818065 30.60352849439119 M 0.0 **** -1.04
8177 O 9.579299259805623 17.591343507293686 21.949522410719617 O 0.0 **** 0.0
8178 H 8.902244456094216 17.47266045023801 22.615659683818823 H 0.0 **** 0.52
8179 H 10.035085715633414 16.750215291287844 21.918067775090172 H 0.0 **** 0.52
8180 M 9.550974460793483 17.468475960256455 22.030769651183345 M 0.0 **** -1.04
8181 O 12.529255479025979 29.24259379038039 26.43806218673205 O 0.0 **** 0.0
8182 H 11.815240392044196 29.873928375318098 26.349591887392176 H 0.0 **** 0.52
8183 H 12.180874542771477 28.432543534074124 26.065667058446323 H 0.0 **** 0.52
8184 M 12.393255281775968 29.219715253122217 26.379065120407606 M 0.0 **** -1.04
8185 O 38.68315056524491 44.910775916782676 48.67346157157293 O 0.0 **** 0.0
8186 H 38.06103226875686 45.35136064093467 49.25232448482784 H 0.0 **** 0.52
8187 H 38.593599559958534 45.364219150797865 47.83525027884996 H 0.0 **** 0.52
8188 M 38.592048271759346 45.025221860015726 48.6402621591508 M 0.0 **** -1.04
8189 O 34.312233284351116 13.510644866424704 29.774718197470218 O 0.0 **** 0.0
8190 H 33.94194430287376 14.296077971641024 29.37196482308752 H 0.0 **** 0.52
8191 H 35.04749769089642 13.832313700452705 30.296393073070526 H 0.0 **** 0.52
8192 M 34.358954824551596 13.65236806568229 29.789941383092415 M 0.0 **** -1.04
8193 O 49.286704658489604 14.16272740938993 42.655320401606545 O 0.0 **** 0.0
8194 H 48.5715689659726 13.530517435171802 42.58377090773969 H 0.0 **** 0.52
8195 H 49.924729987714144 13.878438697016826 42.00084825081063 H 0.0 **** 0.52
8196 M 49.27683421507741 14.045404212409593 42.56238044114729 M 0.0 **** -1.04
8197 O 41.19340354690051 34.39599083046012 3.8855955460379477 O 0.0 **** 0.0
8198 H 41.031289241748745 34.03763814942817 4.758252952779145 H 0.0 **** 0.52
8199 H 40.90810894542145 35.30782832422376 3.943798512832238 H 0.0 **** 0.52
8200 M 41.13613027024899 34.46684410037232 4.004758024131277 M 0.0 **** -1.04
8201 O 32.275716791440544 45.01226110252799 10.016603638322831 O 0.0 **** 0.0
8202 H 33.22133354333348 45.1605870383208 10.02276089229294 H 0.0 **** 0.52
8203 H 31.897231990076012 45.88184744787119 9.886998968231415 H 0.0 **** 0.52
8204 M 32.34831699904332 45.142566579307 10.000801564743 M 0.0 **** -1.04
8205 O 34.06808083994233 6.858257965197625 9.229275311003633 O 0.0 **** 0.0
8206 H 34.05815145128939 7.443907125583935 8.472213087177785 H 0.0 **** 0.52
8207 H 33.46916507755267 6.150046740125119 8.992706197861494 H 0.0 **** 0.52
8208 M 33.99014086145599 6.842568203922676 9.102078678616344 M 0.0 **** -1.04
8209 O 7.889886723782225 2.2983969363471886 37.88375326644704 O 0.0 **** 0.0
8210 H 7.107602048862343 2.496616288548644 38.39850406816471 H 0.0 **** 0.52
8211 H 8.062178553227682 3.1004111325522317 37.39048180818232 H 0.0 **** 0.52
8212 M 7.811800055360627 2.4264391239641725 37.8865021851601 M 0.0 **** -1.04
8213 O 28.90706222944109 32.47391348188093 37.18651446277097 O 0.0 **** 0.0
8214 H 28.381226494241417 32.40970755349125 36.38926765357277 H 0.0 **** 0.52
8215 H 28.60825284613222 31.745147165839857 37.73042768487774 H 0.0 **** 0.52
8216 M 28.80149668476046 32.372402796400664 37.15408392183173 M 0.0 **** -1.04
8217 O 28.241267266153258 19.202553057050707 13.080899630453354 O 0.0 **** 0.0
8218 H 27.48506131693037 19.703801910642614 12.775726225356376 H 0.0 **** 0.52
8219 H 27.872761863924822 18.55258140648714 13.679204295935648 H 0.0 **** 0.52
8220 M 28.09729042403184 19.183514599847264 13.118424188199597 M 0.0 **** -1.04
8221 O 4.03382320028376 8.90386789784236 12.83883380849791 O 0.0 **** 0.0
8222 H 4.332730274995114 8.245973000975312 13.466573800396262 H 0.0 **** 0.52
8223 H 3.5440024281996934 8.405970316667862 12.184309083267223 H 0.0 **** 0.52
8224 M 4.009384082300478 8.75591159040956 12.835404965975172 M 0.0 **** -1.04
8225 O 11.09721274462526 23.836607420342705 38.488687198388966 O 0.0 **** 0.0
8226 H 10.177478300015856 24.005432075732713 38.284198857532935 H 0.0 **** 0.52
8227 H 11.079680128383117 23.429504851687433 39.35482186031202 H 0.0 **** 0.52
8228 M 10.977230537792046 23.806105106340823 38.573386424081875 M 0.0 **** -1.04
8229 O 42.31709679672281 45.417495014014385 4.414893004734978 O 0.0 **** 0.0
8230 H 42.85630895633568 44.889341543560114 3.8262230632237744 H 0.0 **** 0.52
8231 H 41.44627198073732 45.02385868779109 4.360633171650413 H 0.0 **** 0.52
8232 M 42.274646085354846 45.299493535157495 4.332589750844599 M 0.0 **** -1.04
8233 O 33.35640939790424 37.5453848713684 27.336375225397717 O 0.0 **** 0.0
8234 H 32.8187468441587 37.66058053301271 28.11987953204039 H 0.0 **** 0.52
8235 H 33.213635116726024 36.634524636349504 27.07912719341337 H 0.0 **** 0.52
8236 M 33.269304922720934 37.44352984526926 27.403743039800403 M 0.0 **** -1.04
8237 O 25.74532701679904 12.73184593267884 44.20595315460769 O 0.0 **** 0.0
8238 H 25.974687927560822 12.8653624183327 43.286281909454694 H 0.0 **** 0.52
8239 H 26.586499249497095 12.708670044457623 44.66215551454792 H 0.0 **** 0.52
8240 M 25.882368590325967 12.745971040053893 44.146622911831244 M 0.0 **** -1.04
8241 O 38.984651196824345 32.51183240388234 17.88756129434155 O 0.0 **** 0.0
8242 H 39.425956334550726 33.34678662517223 18.04354367492212 H 0.0 **** 0.52
8243 H 38.338533147328064 32.446829254618585 18.590793061282568 H 0.0 **** 0.52
8244 M 38.958431629303995 32.61039563282681 17.99755148276346 M 0.0 **** -1.04
8245 O 34.110060564939175 20.88467735252999 34.24250328221352 O 0.0 **** 0.0
8246 H 34.85942859834077 20.80601070297499 34.83283151092873 H 0.0 **** 0.52
8247 H 34.030668304436134 21.824527629794805 34.07939084886193 H 0.0 **** 0.52
8248 M 34.19582536232088 20.994919651090623 34.29719211301243 M 0.0 **** -1.04
8249 O 28.04983361561961 24.065435011495364 7.597587039526985 O 0.0 **** 0.0
8250 H 28.058416864567924 24.994990943374003 7.369376398363755 H 0.0 **** 0.52
8251 H 28.867061228451206 23.72208218726679 7.236371565636048 H 0.0 **** 0.52
8252 M 28.155547933456727 24.140476339325158 7.522133033120696 M 0.0 **** -1.04
8253 O 37.11434697166401 32.12411623936714 20.177446388850065 O 0.0 **** 0.0
8254 H 37.47194389952434 31.55780527573129 20.861292500898607 H 0.0 **** 0.52
8255 H 36.165158733736625 32.04406239555683 20.271581166720456 H 0.0 **** 0.52
8256 M 37.038616203682274 32.04137401637589 20.277038073524757 M 0.0 **** -1.04
8257 O 46.020652869020346 15.771033258646582 28.450581954605223 O 0.0 **** 0.0
8258 H 45.342186678726165 16.225864194285933 28.949622417126708 H 0.0 **** 0.52
8259 H 46.769518123140244 15.73043553316279 29.045376828452504 H 0.0 **** 0.52
8260 M 46.02966445516195 15.824060341007453 28.59060669077885 M 0.0 **** -1.04
8261 O 41.389504068107726 8.366893750432212 20.046866030472778 O 0.0 **** 0.0
8262 H 41.5808868473537 7.648790829952413 19.443600767568817 H 0.0 **** 0.52
8263 H 41.26888212428216 9.129709566115526 19.48136410733613 H 0.0 **** 0.52
8264 M 41.39856274335375 8.372617710273019 19.897249647213687 M 0.0 **** -1.04
8265 O 31.383249672591194 42.37317508480038 49.17102640769998 O 0.0 **** 0.0
8266 H 32.33604866826325 42.462250220586895 49.192661732961795 H 0.0 **** 0.52
8267 H 31.222032996394233 41.67207500846615 48.53960126454728 H 0.0 **** 0.52
8268 M 31.48458181420487 42.29482774165956 49.09296530468594 M 0.0 **** -1.04
8269 O 11.626880787118175 6.489878303890462 46.843135690504766 O 0.0 **** 0.0
8270 H 12.55091983444499 6.2684686432004275 46.95871509229437 H 0.0 **** 0.52
8271 H 11.171155519423394 5.971769308832206 47.50654065271925 H 0.0 **** 0.52
8272 M 11.686830509508688 6.395210341182363 46.94285523957622 M 0.0 **** -1.04
8273 O 28.623960664607097 11.25034804369082 15.27563843227722 O 0.0 **** 0.0
8274 H 28.947407820138366 10.5536710109402 15.846822953157975 H 0.0 **** 0.52
8275 H 27.914515432708427 10.843151762556985 14.77854090960659 H 0.0 **** 0.52
8276 M 28.574547881456482 11.109037910672384 15.285123206899165 M 0.0 **** -1.04
8277 O 44.129189886361466 36.97918443328073 21.53515187913228 O 0.0 **** 0.0
8278 H 43.976563239083426 37.43969651580164 20.71000807433996 H 0.0 **** 0.52
8279 H 44.73405125418371 37.54356937191091 22.016651578869297 H 0.0 **** 0.52
8280 M 44.18708112501291 37.11038387728274 21.491161055373563 M 0.0 **** -1.04
8281 O 33.73634965800493 48.28769548198696 1.2308159288319365 O 0.0 **** 0.0
8282 H 32.87871479664814 48.5982716435636 1.5210473499005757 H 0.0 **** 0.52
8283 H 33.911336305869234 47.521132456917414 1.7767011963489527 H 0.0 **** 0.52
8284 M 33.64896239317779 48.22932328095708 1.337849069054834 M 0.0 **** -1.04
8285 O 21.616767286821172 23.899241927458664 6.75089687954654 O 0.0 **** 0.0
8286 H 21.19018176360548 23.91618744298072 5.894178347224958 H 0.0 **** 0.52
8287 H 22.505598080333897 23.59324809469344 6.570405541674277 H 0.0 **** 0.52
8288 M 21.675940658705912 23.862240105649175 6.618121050509161 M 0.0 **** -1.04
8289 O 1.7982737687258081 40.12938976592311 17.374242563394965 O 0.0 **** 0.0
8290 H 2.2087244875233245 39.92034687734185 16.53515953845634 H 0.0 **** 0.52
8291 H 0.8905042765037621 39.84228167086163 17.275492494544082 H 0.0 **** 0.52
8292 M 1.734610239407043 40.06587635181081 17.254188473625078 M 0.0 **** -1.04
8293 O 21.942411309305413 48.86949923691155 32.515689810015196 O 0.0 **** 0.0
8294 H 21.00016171046523 48.71436010490177 32.581475701737475 H 0.0 **** 0.52
8295 H 22.310678388413017 48.441210079911656 33.28846168343827 H 0.0 **** 0.52
8296 M 21.86893385992145 48.79481344716183 32.62303595603585 M 0.0 **** -1.04
8297 O 23.534732898345666 37.43187756735298 4.571026597788246 O 0.0 **** 0.0
8298 H 24.370263391119167 37.72303303819277 4.936191659549996 H 0.0 **** 0.52
8299 H 22.876946822295082 37.76498198869704 5.1814261456900805 H 0.0 **** 0.52
8300 M 23.557486167559574 37.51179073177287 4.695910965562896 M 0.0 **** -1.04
8301 O 19.542712837115847 7.889623709906054 43.60071644269887 O 0.0 **** 0.0
8302 H 19.698075849510182 8.77954290443405 43.28427554967884 H 0.0 **** 0.52
8303 H 18.620761711296982 7.722770721078307 43.40477116121831 H 0.0 **** 0.52
8304 M 19.444579933860425 7.982185813567412 43.535124319128705 M 0.0 **** -1.04
8305 O 17.52072103552577 2.2216532341084916 27.02141295193393 O 0.0 **** 0.0
8306 H 17.245598841923453 3.0107837701519773 27.48811332428925 H 0.0 **** 0.52
8307 H 16.705230470670244 1.756244820236005 26.83540500441353 H 0.0 **** 0.52
8308 M 17.381108989282428 2.263093350326118 27.057344635913758 M 0.0 **** -1.04
8309 O 31.901439984044217 43.24390603124161 2.677691910444466 O 0.0 **** 0.0
8310 H 31.702147755902182 43.2302692983073 3.6138142975799568 H 0.0 **** 0.52
8311 H 31.853119937346097 42.326567784933744 2.408648343725112 H 0.0 **** 0.52
8312 M 31.86974257351776 43.12473014937657 2.7630856608516936 M 0.0 **** -1.04
8313 O 1.1238502940419661 14.149579053694925 1.0931253081153969 O 0.0 **** 0.0
8314 H 0.9715229666215431 13.232568891794614 1.321417242304669 H 0.0 **** 0.52
8315 H 1.5507621276453636 14.116050554176384 0.23705841487761603 H 0.0 **** 0.52
8316 M 1.1589998860074797 14.027898146165807 1.0127626444118292 M 0.0 **** -1.04
8317 O 20.273953389036212 46.765187149673295 36.44085034814282 O 0.0 **** 0.0
8318 H 19.43518990156256 46.44833257406524 36.105726506779334 H 0.0 **** 0.52
8319 H 20.224044032070026 47.716890418594744 36.35141462768734 H 0.0 **** 0.52
8320 M 20.160191606778543 46.84645570439723 36.38650119303747 M 0.0 **** -1.04
8321 O 11.990413676428773 33.54399162214063 10.224038737080335 O 0.0 **** 0.0
8322 H 11.286007881059561 33.1416112139846 10.732104635468893 H 0.0 **** 0.52
8323 H 11.556451023330787 33.88975018522364 9.444066324316374 H 0.0 **** 0.52
8324 M 11.844687693893647 33.53674332615683 10.189231219494317 M 0.0 **** -1.04
8325 O 43.32160806293714 18.80515767651838 34.348029217419125 O 0.0 **** 0.0
8326 H 42.99797598781659 18.177621333340028 34.99431846797502 H 0.0 **** 0.52
8327 H 42.90553087239498 18.540782769237826 33.527532976573056 H 0.0 **** 0.52
8328 M 43.22691585804579 18.69098203925547 34.32572852089603 M 0.0 **** -1.04
8329 O 2.079975354468985 31.062438610070828 49.14912128555415 O 0.0 **** 0.0
8330 H 2.8795460285463435 31.51446926853038 48.879706268599065 H 0.0 **** 0.52
8331 H 2.357261784960471 30.490191094271786 49.86457414963183 H 0.0 **** 0.52
8332 M 2.217826561629181 31.047049167830664 49.20621915017279 M 0.0 **** -1.04
8333 O 10.507929422063112 26.085007485935844 10.831282461839555 O 0.0 **** 0.0
8334 H 9.55827778769792 25.99209568491463 10.755394980614543 H 0.0 **** 0.52
8335 H 10.812388859722558 25.22040229266562 11.106944875981254 H 0.0 **** 0.52
8336 M 10.42533638899765 25.962433602374567 10.856856178576344 M 0.0 **** -1.04
8337 O 37.21048280028109 5.969384465219612 20.62279284372267 O 0.0 **** 0.0
8338 H 37.46584802718846 5.04837288733723 20.570325072976257 H 0.0 **** 0.52
8339 H 38.03933994198136 6.4480571220342995 20.632635975661778 H 0.0 **** 0.52
8340 M 37.349276735142034 5.912760434593423 20.617336428923576 M 0.0 **** -1.04
8341 O 1.4495227685694363 38.68313181524831 40.02722229081304 O 0.0 **** 0.0
8342 H 2.0772031120182106 38.02938627256652 40.33522072565864 H 0.0 **** 0.52
8343 H 1.696473012020897 39.48701543886231 40.484403638424794 H 0.0 **** 0.52
8344 M 1.5614858189921759 38.70235110041084 40.12517426110406 M 0.0 **** -1.04
8345 O 11.187275123909412 25.788106495621964 18.187563664120702 O 0.0 **** 0.0
8346 H 11.909198322125734 25.408469591887386 17.68663327272011 H 0.0 **** 0.52
8347 H 10.923807552397546 26.55776747861995 17.683149399145943 H 0.0 **** 0.52
8348 M 11.245963362825716 25.838034274554012 18.05886701731974 M 0.0 **** -1.04
8349 O 44.40421875137163 45.67991212279333 21.01922260386073 O 0.0 **** 0.0
8350 H 43.88652466830427 46.238980770078726 20.43985749259015 H 0.0 **** 0.52
8351 H 43.77226380615554 45.3407383174183 21.653116506362874 H 0.0 **** 0.52
8352 M 44.25704938990489 45.708061068226655 21.02620320372491 M 0.0 **** -1.04
8353 O 21.09280586005933 39.46450246947755 1.3105034684784485 O 0.0 **** 0.0
8354 H 21.843062324431592 38.876431660731356 1.2238122257694457 H 0.0 **** 0.52
8355 H 21.47489824866346 40.30572652328055 1.5606555872207175 H 0.0 **** 0.52
8356 M 21.237761052560973 39.49690958838839 1.3314286799640103 M 0.0 **** -1.04
8357 O 9.271810726326276 30.916075278260124 24.064706497336562 O 0.0 **** 0.0
8358 H 8.915609760074084 30.085849615710643 23.748361174287503 H 0.0 **** 0.52
8359 H 8.56580458425859 31.547796052636357 23.927918500798402 H 0.0 **** 0.52
8360 M 9.135835180406866 30.89066361320016 24.006699673429242 M 0.0 **** -1.04
8361 O 1.9411704857317784 27.08648418891354 43.56568635990211 O 0.0 **** 0.0
8362 H 2.7690785564900073 26.620347613992855 43.449441603378666 H 0.0 **** 0.52
8363 H 1.290314916546218 26.52996002662187 43.13802296079214 H 0.0 **** 0.52
8364 M 1.9638357110875904 26.955571391300193 43.496059426158 M 0.0 **** -1.04
8365 O 12.370179844749607 17.73033418521375 43.69096552457332 O 0.0 **** 0.0
8366 H 11.472320712842182 17.925182556102833 43.42242992234097 H 0.0 **** 0.52
8367 H 12.274396199316403 17.139807589393712 44.438182362610114 H 0.0 **** 0.52
8368 M 12.242980402694558 17.67968289055172 43.75224300852906 M 0.0 **** -1.04
8369 O 9.286944634468883 34.04301228519661 33.67986564403911 O 0.0 **** 0.0
8370 H 8.482503692128942 34.489275787514394 33.415379736720965 H 0.0 **** 0.52
8371 H 9.037871943861827 33.53804396891527 34.45394519195803 H 0.0 **** 0.52
8372 M 9.152081804543585 34.03549746055077 33.745099947163105 M 0.0 **** -1.04
8373 O 47.2826364569705 40.511663663388454 18.627385158160234 O 0.0 **** 0.0
8374 H 46.70142524911412 41.02352478711963 18.06487280175837 H 0.0 **** 0.52
8375 H 46.87139021598959 39.64864427295701 18.675372039257017 H 0.0 **** 0.52
8376 M 47.15558997725318 40.46671041665465 18.561519304422877 M 0.0 **** -1.04
8377 O 45.02767519301615 5.072696619444017 31.864571093433867 O 0.0 **** 0.0
8378 H 44.463701531871585 5.83494967258455 31.99546388244336 H 0.0 **** 0.52
8379 H 44.90664724622348 4.839855021893989 30.94404694076266 H 0.0 **** 0.52
8380 M 44.93998676691525 5.1404682376594195 31.763488551719675 M 0.0 **** -1.04
8381 O 14.691237548423674 35.6396064802926 39.41240334706473 O 0.0 **** 0.0
8382 H 13.744232451385013 35.71462313049184 39.2950033486772 H 0.0 **** 0.52
8383 H 14.830285921062822 34.726617160182876 39.66409025384713 H 0.0 **** 0.52
8384 M 14.587808614843686 35.532335184808865 39.429593933696324 M 0.0 **** -1.04
8385 O 36.55748058679718 46.567685540579504 18.079684541313068 O 0.0 **** 0.0
8386 H 37.17706715149205 45.9229706215547 18.42127623874783 H 0.0 **** 0.52
8387 H 35.86669412541085 46.61046774544003 18.740904440830256 H 0.0 **** 0.52
8388 M 36.548365741575644 46.49063043409154 18.208056946863056 M 0.0 **** -1.04
8389 O 33.55875518274772 49.69831379175829 48.11294722340542 O 0.0 **** 0.0
8390 H 33.172835900964415 49.32576445051124 47.32016562371121 H 0.0 **** 0.52
8391 H 32.8486674706449 50.20092210649966 48.51218385151823 H 0.0 **** 0.52
8392 M 33.41845242737017 49.71496212877221 48.06256831727248 M 0.0 **** -1.04
8393 O 34.47221378092507 10.04855861328582 28.624291393960824 O 0.0 **** 0.0
8394 H 34.27590501300816 10.640467660363242 27.898113512597973 H 0.0 **** 0.52
8395 H 34.13355855517062 10.49805342712532 29.39856295684454 H 0.0 **** 0.52
8396 M 34.40373178389003 10.181871038329703 28.63044882053428 M 0.0 **** -1.04
8397 O 12.865955724765847 10.014890501147448 29.68340518643139 O 0.0 **** 0.0
8398 H 13.66314129252612 9.485074698199995 29.68765137611006 H 0.0 **** 0.52
8399 H 12.172047300327684 9.40242710633016 29.439255635871643 H 0.0 **** 0.52
8400 M 12.87917681616264 9.868664592477113 29.652694570012773 M 0.0 **** -1.04
8401 O 47.98542156597639 19.170010630515932 5.498543271886675 O 0.0 **** 0.0
8402 H 48.75436252507969 19.73068897756542 5.601491562640334 H 0.0 **** 0.52
8403 H 48.05700870688301 18.531794392086457 6.208321541080444 H 0.0 **** 0.52
8404 M 48.09301972111011 19.160084833262218 5.602582440557406 M 0.0 **** -1.04
8405 O 13.201897650514129 30.647444577552363 45.032648844804655 O 0.0 **** 0.0
8406 H 13.971770427357926 30.43167506635777 45.558927029924625 H 0.0 **** 0.52
8407 H 13.38910038344866 31.516901723593044 44.67877202917932 H 0.0 **** 0.52
8408 M 13.324416185686252 30.73112483148868 45.054718390256326 M 0.0 **** -1.04
8409 O 7.297160050226012 46.899775243692226 13.971088448936579 O 0.0 **** 0.0
8410 H 6.489837214941211 47.02163389437917 13.471479191058142 H 0.0 **** 0.52
8411 H 7.099468103679413 47.25605680280972 14.837234968037016 H 0.0 **** 0.52
8412 M 7.168505390440387 46.960982596259896 14.018009793643555 M 0.0 **** -1.04
8413 O 27.6662510661204 34.81048021081952 11.84316116808634 O 0.0 **** 0.0
8414 H 27.866699110544815 34.11818170877771 11.213262120648793 H 0.0 **** 0.52
8415 H 26.976847221204277 34.44079226703735 12.394777699544207 H 0.0 **** 0.52
8416 M 27.603658191634608 34.67453218133468 11.833139916029637 M 0.0 **** -1.04
8417 O 11.499937407073695 24.345069140925606 43.39936862984973 O 0.0 **** 0.0
8418 H 11.97067623245329 23.513396794722528 43.45372108745307 H 0.0 **** 0.52
8419 H 10.588830423738731 24.11770708304716 43.58489042429113 H 0.0 **** 0.52
8420 M 11.443564774158304 24.209499805128033 43.43007590740079 M 0.0 **** -1.04
8421 O 4.920492851751187 31.921418419293992 43.09667198545662 O 0.0 **** 0.0
8422 H 4.927803188556528 32.53289501535614 42.36028117044509 H 0.0 **** 0.52
8423 H 4.663333921710609 31.084062350240725 42.71075452674383 H 0.0 **** 0.52
8424 M 4.888509246101582 31.892503543372264 42.953002598108135 M 0.0 **** -1.04
8425 O 12.560815872227074 4.7179175680842524 43.142757466957164 O 0.0 **** 0.0
8426 H 12.943932992618722 3.9780651220081715 43.613999304979984 H 0.0 **** 0.52
8427 H 12.567334067350933 4.447041440130296 42.22470889995698 H 0.0 **** 0.52
8428 M 12.610694297134593 4.5885309588667536 43.08556008998108 M 0.0 **** -1.04
8429 O 0.019753681516299082 4.615594830237171 49.94592652478969 O 0.0 **** 0.0
8430 H -0.22244511749808282 5.538915728255404 49.87488499511399 H 0.0 **** 0.52
8431 H 0.5881083990201574 4.457881818329213 49.19205119818329 H 0.0 **** 0.52
8432 M 0.06150531429938866 4.713602268277491 49.840326461907644 M 0.0 **** -1.04
8433 O 20.215023058065967 0.47648856279487006 12.190535546163716 O 0.0 **** 0.0
8434 H 20.176132630380266 -0.14176077826738975 12.920250597609485 H 0.0 **** 0.52
8435 H 19.31521869176197 0.5233100445498735 11.867443835969006 H 0.0 **** 0.52
8436 M 20.094858659647684 0.40333871431204926 12.242588840427478 M 0.0 **** -1.04
8437 O 22.97388264490098 45.6051478115892 16.09378293190278 O 0.0 **** 0.0
8438 H 23.056161240594424 46.41090561582483 15.583671292434872 H 0.0 **** 0.52
8439 H 22.17469355232462 45.19352259888143 15.765013451686286 H 0.0 **** 0.52
8440 M 22.882109346654296 45.655602309026115 15.986395679254699 M 0.0 **** -1.04
8441 O 25.280924349533382 46.504102232305655 13.736316815079427 O 0.0 **** 0.0
8442 H 24.53462058045717 45.91647658845982 13.618181316525693 H 0.0 **** 0.52
8443 H 25.610047272805243 46.65516325757691 12.850265570579364 H 0.0 **** 0.52
8444 M 25.227519815162296 46.448216075149396 13.607768483036894 M 0.0 **** -1.04
8445 O 39.64664404855389 39.72172300182624 16.625427924159844 O 0.0 **** 0.0
8446 H 39.11836674619143 40.46465093847532 16.33352231236787 H 0.0 **** 0.52
8447 H 39.56367320499404 39.07733009830448 15.922503817998722 H 0.0 **** 0.52
8448 M 39.56839692085954 39.734336918896275 16.498077625072142 M 0.0 **** -1.04
8449 O 45.58112670017613 45.46232224925332 46.5711876925313 O 0.0 **** 0.0
8450 H 46.379946378383295 45.96450997219479 46.410180627226836 H 0.0 **** 0.52
8451 H 45.338475732744655 45.679453523162465 47.47130051575753 H 0.0 **** 0.52
8452 M 45.65232341281211 45.554403519634874 46.665802215421564 M 0.0 **** -1.04
8453 O 1.2754587814098928 41.57795926021703 36.41971597587653 O 0.0 **** 0.0
8454 H 1.8230750207367574 41.94135875987219 37.11562161119659 H 0.0 **** 0.52
8455 H 1.2321649842256397 40.64142498809169 36.612740427429685 H 0.0 **** 0.52
8456 M 1.3400178948769197 41.50459023015299 36.533510321165835 M 0.0 **** -1.04
8457 O 44.306146474659684 49.71667910208589 6.724090804981858 O 0.0 **** 0.0
8458 H 44.35432772962509 49.30233814980574 5.862563309869493 H 0.0 **** 0.52
8459 H 44.10790022580103 48.99849902576001 7.32504291061348 H 0.0 **** 0.52
8460 M 44.28693637088135 49.571701946742586 6.690733694264807 M 0.0 **** -1.04
8461 O 19.47693422418937 36.5886948066221 33.83657745009548 O 0.0 **** 0.0
8462 H 20.155003084755588 36.916750378849045 34.427197577634516 H 0.0 **** 0.52
8463 H 19.126793434912262 35.81550485812953 34.279078755752764 H 0.0 **** 0.52
8464 M 19.51891361718811 36.53171191846411 33.96882962709705 M 0.0 **** -1.04
8465 O 18.959675875769257 25.586026075420893 6.270170328182225 O 0.0 **** 0.0
8466 H 19.029871783629492 24.751821499688134 5.806052628179945 H 0.0 **** 0.52
8467 H 18.12728716803725 25.955390182423333 5.975336473896943 H 0.0 **** 0.52
8468 M 18.86210573011489 25.526519997100273 6.17301541122024 M 0.0 **** -1.04
8469 O 27.131579394441076 15.77322054312822 29.469456823995966 O 0.0 **** 0.0
8470 H 27.305449028035763 16.63670277041621 29.844150159971754 H 0.0 **** 0.52
8471 H 27.992030511937084 15.44970363515294 29.202642135068935 H 0.0 **** 0.52
8472 M 27.263984836919967 15.842342714815254 29.483265775739135 M 0.0 **** -1.04
8473 O 23.57709400370648 8.305518197869558 33.36435372992355 O 0.0 **** 0.0
8474 H 24.281715091607083 7.679416560458746 33.53088719080093 H 0.0 **** 0.52
8475 H 23.98956499589053 9.000011760562614 32.8507636270875 H 0.0 **** 0.52
8476 M 23.72009550205413 8.314272934778668 33.31992610025498 M 0.0 **** -1.04
8477 O 13.037631647095353 29.379551241865645 35.91454148593034 O 0.0 **** 0.0
8478 H 13.66772353081435 28.66162605374575 35.97613906056512 H 0.0 **** 0.52
8479 H 13.400593709487765 30.066095052427276 36.47413601685412 H 0.0 **** 0.52
8480 M 13.164754711140418 29.3755342008651 35.99406139330818 M 0.0 **** -1.04
8481 O 11.786711265831094 46.4177342001628 34.77501810068535 O 0.0 **** 0.0
8482 H 10.9127109476425 46.02753890292752 34.78503602894159 H 0.0 **** 0.52
8483 H 12.139359347527602 46.23894067320879 35.64674098444369 H 0.0 **** 0.52
8484 M 11.719971485294765 46.34489648657879 34.88789250162203 M 0.0 **** -1.04
8485 O 48.02429036078779 1.187712361835176 5.254714131418184 O 0.0 **** 0.0
8486 H 47.76855777638337 0.3090359238393182 5.535354193473215 H 0.0 **** 0.52
8487 H 47.26402106307151 1.734069148789691 5.453998414414219 H 0.0 **** 0.52
8488 M 47.89422862801635 1.1451708513228387 5.316150069384743 M 0.0 **** -1.04
8489 O 48.568234873011505 16.233294301906017 41.24835077487174 O 0.0 **** 0.0
8490 H 48.71115143340792 15.450716154617515 41.78068046010781 H 0.0 **** 0.52
8491 H 48.01036496031839 15.93602460911658 40.52957408198706 H 0.0 **** 0.52
8492 M 48.5151160103225 16.095061243176147 41.22448278162133 M 0.0 **** -1.04
8493 O 17.685682323730227 49.0680060619976 0.6285567664372351 O 0.0 **** 0.0
8494 H 16.91683833396172 48.50011280955184 0.5775363019337192 H 0.0 **** 0.52
8495 H 17.900225984946267 49.26399263061347 -0.2834683151345061 H 0.0 **** 0.52
8496 M 17.614725120442216 49.020397803037426 0.5052754007474434 M 0.0 **** -1.04
8497 O 41.87485608608043 0.9664450433661349 17.609555886998123 O 0.0 **** 0.0
8498 H 41.14776138768001 0.3476896775412359 17.67813422689001 H 0.0 **** 0.52
8499 H 42.110009425924396 1.1619068287879057 18.51659834964878 H 0.0 **** 0.52
8500 M 41.81188141421708 0.9122585546031582 17.73444740408496 M 0.0 **** -1.04
8501 O 6.921095221691019 0.7087376485121624 0.6441094515798369 O 0.0 **** 0.0
8502 H 6.856349628285756 1.2857923708031933 1.4050592816771612 H 0.0 **** 0.52
8503 H 6.114177624630486 0.8664538533752619 0.15396730084541588 H 0.0 **** 0.52
8504 M 6.809510923632011 0.8027985822593777 0.6787764217139127 M 0.0 **** -1.04
8505 O 20.702592475247272 13.406389932124384 1.047755733173112 O 0.0 **** 0.0
8506 H 19.929575592900115 13.88006302756313 0.7406619720942444 H 0.0 **** 0.52
8507 H 21.31035234222832 13.434165477092192 0.3087792094697335 H 0.0 **** 0.52
8508 M 20.68143814439521 13.47058186352722 0.9138452227044809 M 0.0 **** -1.04
8509 O 24.97486250193128 26.119583020992934 16.86487076655235 O 0.0 **** 0.0
8510 H 24.80663762907873 27.016057033923463 17.15515521524179 H 0.0 **** 0.52
8511 H 25.35792001676072 26.217490884882977 15.993142661550479 H 0.0 **** 0.52
8512 M 25.00236354205221 26.246876836510584 16.790438566173577 M 0.0 **** -1.04
8513 O 23.41871105422465 11.325543494525235 25.64812481372931 O 0.0 **** 0.0
8514 H 22.79918370831405 10.71403790232035 25.250034107124122 H 0.0 **** 0.52
8515 H 24.279963178997377 10.994366898704136 25.393575047942505 H 0.0 **** 0.52
8516 M 23.449654324583243 11.204868474469876 25.564579117130606 M 0.0 **** -1.04
8517 O 32.56756871655936 9.328499808489886 25.211097399372036 O 0.0 **** 0.0
8518 H 32.67470987288795 8.388698697807335 25.06438884245695 H 0.0 **** 0.52
8519 H 33.302276914634525 9.56855056063611 25.77572763953268 H 0.0 **** 0.52
8520 M 32.675335723639854 9.23892280274037 25.26459602117538 M 0.0 **** -1.04
8521 O 8.5565799172292 33.219960674975695 49.068983718079664 O 0.0 **** 0.0
8522 H 8.104457403114381 33.44041998532997 48.25460576321552 H 0.0 **** 0.52
8523 H 7.892540863860781 32.78155716852566 49.60103942150553 H 0.0 **** 0.52
8524 M 8.413697683964244 33.19206060161331 49.03284254412779 M 0.0 **** -1.04
8525 O 48.88448685473946 9.179838314787345 47.58731192269429 O 0.0 **** 0.0
8526 H 49.467462221199604 8.464971663379007 47.331705050881055 H 0.0 **** 0.52
8527 H 48.405308135267276 9.396395167004702 46.78748646419227 H 0.0 **** 0.52
8528 M 48.89777404468927 9.116048275963722 47.45220238585057 M 0.0 **** -1.04
8529 O 1.9430066367648067 20.82500279479396 0.7603219128482447 O 0.0 **** 0.0
8530 H 1.6289381614863387 20.17441236583106 1.388272012402925 H 0.0 **** 0.52
8531 H 2.0146999080523145 20.346383972941666 -0.06551825618352325 H 0.0 **** 0.52
8532 M 1.9119799514025217 20.680450145399092 0.7349888261755373 M 0.0 **** -1.04
8533 O 15.789311924085682 40.03721082382446 2.7424737800562826 O 0.0 **** 0.0
8534 H 15.872884248096222 39.284811120923834 3.328254532743567 H 0.0 **** 0.52
8535 H 15.40905708745071 40.72535829451745 3.288449038966338 H 0.0 **** 0.52
8536 M 15.751333409303955 40.02898540107217 2.8873525789625734 M 0.0 **** -1.04
8537 O 8.788832349054875 36.70856231740932 19.87926816923596 O 0.0 **** 0.0
8538 H 8.827596661518951 35.762250863681466 20.01790419710296 H 0.0 **** 0.52
8539 H 7.855501130649023 36.8994185831156 19.78601545230092 H 0.0 **** 0.52
8540 M 8.6743162579951 36.611854443009285 19.885078066258966 M 0.0 **** -1.04
8541 O 13.67753360127969 0.827859484173203 40.83020833846038 O 0.0 **** 0.0
8542 H 12.766250219018216 0.817064341270239 41.12291051550976 H 0.0 **** 0.52
8543 H 13.829210998739624 -0.052008262249756854 40.4851643433612 H 0.0 **** 0.52
8544 M 13.58029438117033 0.7138430870951851 40.82350732123437 M 0.0 **** -1.04
8545 O 22.27969298676866 40.10541949561002 20.13453613601206 O 0.0 **** 0.0
8546 H 22.42476869117378 39.24044513882973 20.51794298554745 H 0.0 **** 0.52
8547 H 21.537082950972593 39.984186091907574 19.542875970721667 H 0.0 **** 0.52
8548 M 22.203201121700786 39.97917228558099 20.107877281079 M 0.0 **** -1.04
8549 O 0.5032239643527916 27.034294070375367 0.5004888153654434 O 0.0 **** 0.0
8550 H -0.3334970175163292 26.678160539684598 0.7993133902031744 H 0.0 **** 0.52
8551 H 0.2827584585621352 27.54208370789586 -0.2803912366076844 H 0.0 **** 0.52
8552 M 0.36789062706893105 27.053708794331655 0.4387794668895495 M 0.0 **** -1.04
8553 O 42.88490559381723 12.63193664808174 47.75646850543399 O 0.0 **** 0.0
8554 H 42.51782817870348 11.873478495407786 47.30234966969029 H 0.0 **** 0.52
8555 H 42.12679366734755 13.179499913465154 47.96060067074236 H 0.0 **** 0.52
8556 M 42.74086714154516 12.604939948044558 47.724466622674115 M 0.0 **** -1.04
8557 O 16.240305679163825 9.287421121857461 26.224983965612616 O 0.0 **** 0.0
8558 H 15.528711477468065 9.920832750596192 26.31800207140789 H 0.0 **** 0.52
8559 H 16.904438108951254 9.579145398738076 26.849527071296556 H 0.0 **** 0.52
8560 M 16.23422969782793 9.40584965513049 26.316840688184293 M 0.0 **** -1.04
8561 O 39.45668894374418 5.6303809069814506 18.67164680436349 O 0.0 **** 0.0
8562 H 38.88500253511143 6.39616592252834 18.61708748368828 H 0.0 **** 0.52
8563 H 38.88114515734438 4.887714589294006 18.488822320748056 H 0.0 **** 0.52
8564 M 39.30982903858762 5.633341337588433 18.641259034998114 M 0.0 **** -1.04
8565 O 40.72183591100183 16.47103452247955 16.980525672431753 O 0.0 **** 0.0
8566 H 40.70141042412084 17.348541333050406 16.598696953306458 H 0.0 **** 0.52
8567 H 40.083845389946056 15.972320140232227 16.470151235595353 H 0.0 **** 0.52
8568 M 40.63755091179053 16.51952448305326 16.866312380619803 M 0.0 **** -1.04
8569 O 36.18064582548948 29.107198771371664 10.607848435620381 O 0.0 **** 0.0
8570 H 36.6610319742901 28.290837957912565 10.745737551927974 H 0.0 **** 0.52
8571 H 36.603372328904584 29.509157652328717 9.848928022641928 H 0.0 **** 0.52
8572 M 36.296255311213 29.054150545814466 10.528348021602765 M 0.0 **** -1.04
8573 O 19.68425594220058 4.79554990908774 2.2745894230557093 O 0.0 **** 0.0
8574 H 19.839275399895982 4.169467397920229 2.981849976600043 H 0.0 **** 0.52
8575 H 20.55276313951959 4.965427028201034 1.9098072726266535 H 0.0 **** 0.52
8576 M 19.81528014191793 4.737150184039287 2.318431087721739 M 0.0 **** -1.04
8577 O 33.11510561311909 22.452556340962758 11.5523422890382 O 0.0 **** 0.0
8578 H 32.49797545378884 22.75624062706551 10.886643301285481 H 0.0 **** 0.52
8579 H 33.81700820768501 23.103312992219053 11.54359454372598 H 0.0 **** 0.52
8580 M 33.12595735559319 22.57473685531026 11.466005030655467 M 0.0 **** -1.04
8581 O 21.40577016353417 35.81907754632479 37.20800958436213 O 0.0 **** 0.0
8582 H 21.301228170931964 36.397536398107434 36.45257232975388 H 0.0 **** 0.52
8583 H 20.67955231131795 36.04813012923458 37.78798490206608 H 0.0 **** 0.52
8584 M 21.29942250247987 35.92244956516666 37.18554869500227 M 0.0 **** -1.04
8585 O 45.44828716565475 34.00157667066702 41.978668459750864 O 0.0 **** 0.0
8586 H 45.25520514426937 34.932828914653214 42.08691720045861 H 0.0 **** 0.52
8587 H 45.233152062652444 33.81655850953749 41.06449555149891 H 0.0 **** 0.52
8588 M 45.396030491420774 34.09710411075527 41.875500390658836 M 0.0 **** -1.04
8589 O 28.116151404536687 6.1390828591124915 48.8494282398756 O 0.0 **** 0.0
8590 H 28.094284950122383 6.095787177062263 47.893459051023044 H 0.0 **** 0.52
8591 H 27.23084297566161 5.8967370292670935 49.12095230555956 H 0.0 **** 0.52
8592 M 28.000021521841326 6.102517140074752 48.761810114750595 M 0.0 **** -1.04
8593 O 4.041774618235128 11.792090333936578 5.1808413432243725 O 0.0 **** 0.0
8594 H 3.7771938637730136 12.690418635242999 5.378913149937915 H 0.0 **** 0.52
8595 H 3.721557507757761 11.638030330285787 4.292047276637959 H 0.0 **** 0.52
8596 M 3.966913190595099 11.887366215099632 5.0924206882996685 M 0.0 **** -1.04
8597 O 30.592753504134308 45.57029539146456 7.374037640846549 O 0.0 **** 0.0
8598 H 31.129492299048934 46.35535758938752 7.482746133299203 H 0.0 **** 0.52
8599 H 31.018252068154467 44.91088667153192 7.922089453458229 H 0.0 **** 0.52
8600 M 30.71593240048422 45.586380052985184 7.458111363963624 M 0.0 **** -1.04
8601 O 21.83306783194889 26.192822643873853 35.38516679273181 O 0.0 **** 0.0
8602 H 21.97101603749759 26.338274389648262 36.32113780218798 H 0.0 **** 0.52
8603 H 22.688708679987705 26.355890073519397 34.988283724918965 H 0.0 **** 0.52
8604 M 21.960259502230635 26.232316339155055 35.45417699581771 M 0.0 **** -1.04
8605 O 41.415770307025845 18.899270806234735 31.935919530374438 O 0.0 **** 0.0
8606 H 41.07209255243419 18.145940335536007 32.41613511875136 H 0.0 **** 0.52
8607 H 41.48412891533577 18.595938847824574 31.030631067039952 H 0.0 **** 0.52
8608 M 41.380525865739536 18.76400447866751 31.881504740658034 M 0.0 **** -1.04
8609 O 49.42395056022372 31.511684200889167 45.67134809982641 O 0.0 **** 0.0
8610 H 49.33991032236151 31.52090954937405 46.62480603681619 H 0.0 **** 0.52
8611 H 48.598747780081574 31.138678418298547 45.361289642865394 H 0.0 **** 0.52
8612 M 49.30755596647258 31.46511589393963 45.753711997708585 M 0.0 **** -1.04
8613 O 9.802358443133476 3.2462454787904487 2.9357122173963717 O 0.0 **** 0.0
8614 H 10.072692875612008 2.7911998683124217 3.733259786355987 H 0.0 **** 0.52
8615 H 9.947493485123287 4.172808157877085 3.127142381118361 H 0.0 **** 0.52
8616 M 9.855544104900385 3.3066056209482952 3.0623134108508765 M 0.0 **** -1.04
8617 O 21.223799057792576 21.743117485091858 18.38386685075227 O 0.0 **** 0.0
8618 H 20.515693100895472 21.73790326762466 17.73982646060773 H 0.0 **** 0.52
8619 H 21.86836158855011 21.126388506876083 18.036862670008173 H 0.0 **** 0.52
8620 M 21.215664884517498 21.66350131992064 18.25700127304669 M 0.0 **** -1.04
8621 O 32.62949434239185 17.64935163046726 2.511863734824466 O 0.0 **** 0.0
8622 H 32.987734939399786 18.028861911123567 1.7094524185947577 H 0.0 **** 0.52
8623 H 31.680413931554682 17.70812014250036 2.4022221609371357 H 0.0 **** 0.52
8624 M 32.553859447340386 17.705456787612476 2.395110240203266 M 0.0 **** -1.04
8625 O 49.45730589109048 24.36668035635977 14.898748471437225 O 0.0 **** 0.0
8626 H 49.42437939053312 24.303874054463698 15.853315930552078 H 0.0 **** 0.52
8627 H 48.62519793514054 24.7728262116655 14.656117053101523 H 0.0 **** 0.52
8628 M 49.346570507602 24.410631656033825 14.989885478484954 M 0.0 **** -1.04
8629 O 48.799929277421064 15.5892568498311 29.871921226096106 O 0.0 **** 0.0
8630 H 49.11092494280827 14.684298924360181 29.895629734200618 H 0.0 **** 0.52
8631 H 48.931589989694906 15.911704421422582 30.763505279011536 H 0.0 **** 0.52
8632 M 48.856594484498544 15.514688024089732 29.98908987398213 M 0.0 **** -1.04
8633 O 21.54547649086643 9.576785583496784 24.700652045391482 O 0.0 **** 0.0
8634 H 20.939491520978063 10.099657033769843 24.1756621272743 H 0.0 **** 0.52
8635 H 22.152861959065802 9.201339049295663 24.063194277904454 H 0.0 **** 0.52
8636 M 21.5456564722323 9.595657795279104 24.551844349024158 M 0.0 **** -1.04
8637 O 6.475449975870482 9.337140346826489 41.77373548015874 O 0.0 **** 0.0
8638 H 6.859097022495796 10.21106985394224 41.70099327214144 H 0.0 **** 0.52
8639 H 5.531432951546101 9.48372202625913 41.71395624145003 H 0.0 **** 0.52
8640 M 6.403715650071973 9.467778851566411 41.75677150540184 M 0.0 **** -1.04
8641 O 25.95111925549394 20.862944659713165 9.03308256224512 O 0.0 **** 0.0
8642 H 25.03135252455443 20.865266822990993 9.298135907307573 H 0.0 **** 0.52
8643 H 26.282266435367422 20.01292100156718 9.32296279351002 H 0.0 **** 0.52
8644 M 25.875768872920847 20.754428418607016 9.104120411250335 M 0.0 **** -1.04
8645 O 24.16416987896902 49.69395599860167 27.156307422631414 O 0.0 **** 0.0
8646 H 24.44377903746778 50.4292733093454 27.701610643984 H 0.0 **** 0.52
8647 H 23.313248435276495 49.96222067105738 26.809615485282492 H 0.0 **** 0.52
8648 M 24.091034193629948 49.822427344590324 27.181731932535314 M 0.0 **** -1.04
8649 O 45.72545307603903 31.54708631507209 25.254739005807224 O 0.0 **** 0.0
8650 H 46.05110825766853 32.306717392819536 25.737582720624772 H 0.0 **** 0.52
8651 H 45.2108710830044 31.92019796965862 24.539042594871773 H 0.0 **** 0.52
8652 M 45.70126816260255 31.69209118238152 25.224931195813255 M 0.0 **** -1.04
8653 O 33.0730026078556 22.86056606678022 15.443414510933907 O 0.0 **** 0.0
8654 H 32.52273675544956 23.046437394096188 14.682567690261502 H 0.0 **** 0.52
8655 H 32.9710943115783 21.92005148109292 15.589278357273418 H 0.0 **** 0.52
8656 M 32.98951617705075 22.763962638273277 15.364688010420014 M 0.0 **** -1.04
8657 O 14.882353513341755 6.76366652169478 25.931336022696378 O 0.0 **** 0.0
8658 H 14.348699386624759 7.491740363876865 25.61297903271914 H 0.0 **** 0.52
8659 H 15.760753684884492 7.132517657013381 26.02402008832301 H 0.0 **** 0.52
8660 M 14.926485773177006 6.904086795392843 25.902447043926355 M 0.0 **** -1.04
8661 O 42.06389444738462 41.112515847489746 34.900678025917415 O 0.0 **** 0.0
8662 H 41.29650487082766 41.27693506005373 35.44868051590111 H 0.0 **** 0.52
8663 H 42.80984075826961 41.25461790794451 35.48343035433864 H 0.0 **** 0.52
8664 M 42.06114935577821 41.15175429653544 35.04542920547238 M 0.0 **** -1.04
8665 O 33.383785435841496 16.724785899435407 4.953552761880296 O 0.0 **** 0.0
8666 H 33.886755851364 17.465374177901037 5.292342425450698 H 0.0 **** 0.52
8667 H 33.121391992581465 16.995318379282732 4.073671212966744 H 0.0 **** 0.52
8668 M 33.414583055588714 16.854222251303423 4.88428616028186 M 0.0 **** -1.04
8669 O 21.41515515074623 29.36903584546722 13.4216245546222 O 0.0 **** 0.0
8670 H 21.498085239250877 29.167939815942532 14.353778631347243 H 0.0 **** 0.52
8671 H 22.260889345006106 29.12302462895638 13.046871980578247 H 0.0 **** 0.52
8672 M 21.534035509041242 29.311800533779742 13.492979274057491 M 0.0 **** -1.04
8673 O 48.147352075765056 1.0857559612839935 49.094938165593874 O 0.0 **** 0.0
8674 H 48.17747101897531 1.4934490244762841 49.96044814302991 H 0.0 **** 0.52
8675 H 48.94732128141876 0.5622071843255085 49.04830031353586 H 0.0 **** 0.52
8676 M 48.25361348149586 1.0709243288198138 49.199763379047376 M 0.0 **** -1.04
8677 O 38.3047052860658 37.06062498392407 5.602817239571984 O 0.0 **** 0.0
8678 H 38.296414425630495 36.785639759770866 6.519628209179335 H 0.0 **** 0.52
8679 H 37.55173237889253 37.6459152223901 5.52099554761843 H 0.0 **** 0.52
8680 M 38.20725422619564 37.10034794947843 5.7097068988976964 M 0.0 **** -1.04
8681 O 25.13047170121055 45.16188220264757 10.156109227787834 O 0.0 **** 0.0
8682 H 25.264474316299655 44.564879769181914 10.8922216770688 H 0.0 **** 0.52
8683 H 25.81630723484514 44.92899321520526 9.530312706417408 H 0.0 **** 0.52
8684 M 25.235421440651248 45.055645707271765 10.170231206034453 M 0.0 **** -1.04
8685 O 23.999163407867755 41.25220888318103 26.613923914094027 O 0.0 **** 0.0
8686 H 23.592461746146387 40.92637546405691 27.416828481702694 H 0.0 **** 0.52
8687 H 23.82734268876949 40.570632489997834 25.964185511869836 H 0.0 **** 0.52
8688 M 23.925105167375865 41.12324740508646 26.633531213778237 M 0.0 **** -1.04
8689 O 25.908439388160907 21.956948742326446 0.9083527552726864 O 0.0 **** 0.0
8690 H 26.600131528066544 22.261663561757047 0.3210378346748979 H 0.0 **** 0.52
8691 H 25.635853449748144 22.74088743295505 1.3851831072489482 H 0.0 **** 0.52
8692 M 25.962090216080643 22.096310498502863 0.8942093423909377 M 0.0 **** -1.04
8693 O 31.910445398630422 32.766343779506236 21.572636732625384 O 0.0 **** 0.0
8694 H 32.35407874065621 33.61217682373387 21.509507152605423 H 0.0 **** 0.52
8695 H 31.00509925339361 32.95094475148691 21.32263698651856 H 0.0 **** 0.52
8696 M 31.85134037597501 32.89825147872033 21.532552336784306 M 0.0 **** -1.04
8697 O 32.87914618914906 13.818790707688612 8.128755026578764 O 0.0 **** 0.0
8698 H 33.078193637989486 12.963395389716636 8.509421356635224 H 0.0 **** 0.52
8699 H 32.02895513690298 14.054679617963668 8.499915881644142 H 0.0 **** 0.52
8700 M 32.795791009103105 13.739486291777318 8.224998307292136 M 0.0 **** -1.04
8701 O 10.780886965713858 20.837260000897903 1.8147376085415203 O 0.0 **** 0.0
8702 H 10.07755789333732 20.455584350992915 1.2894943076464571 H 0.0 **** 0.52
8703 H 11.193786623342035 20.087820966767815 2.243787667082799 H 0.0 **** 0.52
8704 M 10.743707893791925 20.69246296640902 1.8024227960281465 M 0.0 **** -1.04
8705 O 2.3938810897216953 12.759886761288818 17.435314058797193 O 0.0 **** 0.0
8706 H 2.6462348767139403 12.683578410609154 16.515138353016905 H 0.0 **** 0.52
8707 H 1.7225978209428305 13.442182229540922 17.444281346359514 H 0.0 **** 0.52
8708 M 2.340253037015394 12.837460686316444 17.31866730072934 M 0.0 **** -1.04
8709 O 4.418933823345981 45.72247426569238 28.195469592948072 O 0.0 **** 0.0
8710 H 4.560603062498219 45.417333786422354 27.299339090018908 H 0.0 **** 0.52
8711 H 3.469583342247774 45.82077551092435 28.26825864236238 H 0.0 **** 0.52
8712 M 4.3155407057772965 45.69599650827222 28.090071112031804 M 0.0 **** -1.04
8713 O 12.84001221003492 41.359566588189765 41.42799557809651 O 0.0 **** 0.0
8714 H 13.277999565175897 41.28614067251181 40.58005500411147 H 0.0 **** 0.52
8715 H 13.387215911747589 40.85007863749652 42.02567398809804 H 0.0 **** 0.52
8716 M 12.966129353684686 41.284945851661 41.39595939315596 M 0.0 **** -1.04
8717 O 7.930204695071829 23.988006398161414 0.9320806885565673 O 0.0 **** 0.0
8718 H 7.777414587248302 23.890910742153242 1.8720041066052886 H 0.0 **** 0.52
8719 H 7.4434228654149805 23.266337319154026 0.5340021768778769 H 0.0 **** 0.52
8720 M 7.8483316728905805 23.88319405381829 1.0014438194706514 M 0.0 **** -1.04
8721 O 47.04218576167966 26.053571392901883 30.879121365190187 O 0.0 **** 0.0
8722 H 46.096242463246185 25.970042550500786 30.99929550748847 H 0.0 **** 0.52
8723 H 47.21145833553142 25.657161136074702 30.024466951074146 H 0.0 **** 0.52
8724 M 46.942761638572485 25.992132943329814 30.785098991387287 M 0.0 **** -1.04
8725 O 24.54518572499301 0.015090039715739393 22.121812211223286 O 0.0 **** 0.0
8726 H 24.515147385513906 0.3137159577210345 23.0307391451495 H 0.0 **** 0.52
8727 H 25.32638156609007 -0.5361480113118517 22.07600188472767 H 0.0 **** 0.52
8728 M 24.641343254167243 -0.017247819958669197 22.232301596884426 M 0.0 **** -1.04
8729 O 34.229579295138315 42.277121222154854 19.66481708412276 O 0.0 **** 0.0
8730 H 34.20550508754837 42.80656873130987 18.867738101546795 H 0.0 **** 0.52
8731 H 33.620858275877 42.713209092140715 20.261067212309353 H 0.0 **** 0.52
8732 M 34.14857329146636 42.40072239424692 19.63910833941273 M 0.0 **** -1.04
8733 O 20.31764990434825 41.37653142648788 27.10821273872358 O 0.0 **** 0.0
8734 H 20.53060535845824 42.30857654447979 27.15480110922958 H 0.0 **** 0.52
8735 H 19.557893523098713 41.274998628478016 27.681527049139802 H 0.0 **** 0.52
8736 M 20.247652340620412 41.48284746171414 27.187567478033458 M 0.0 **** -1.04
8737 O 40.79714667050774 13.11179288735951 43.75424686547496 O 0.0 **** 0.0
8738 H 41.37561498123658 12.482249749718923 44.184686110533505 H 0.0 **** 0.52
8739 H 40.05302346007998 13.200146438779859 44.34981641009715 H 0.0 **** 0.52
8740 M 40.775940924667516 13.042513881225526 43.88558868993868 M 0.0 **** -1.04
8741 O 2.859380612245481 45.3820165985261 12.033351539702808 O 0.0 **** 0.0
8742 H 3.197684141613358 44.52203819124269 11.78391977660522 H 0.0 **** 0.52
8743 H 3.6180996570085355 45.96314177012917 11.97978856106483 H 0.0 **** 0.52
8744 M 2.999812986357327 45.34632010606367 11.99456457757374 M 0.0 **** -1.04
8745 O 26.038235510619174 30.867288406012836 16.86959438625896 O 0.0 **** 0.0
8746 H 26.042944133921587 30.57743217854802 15.957350053593702 H 0.0 **** 0.52
8747 H 26.89858756133227 30.616120212438773 17.205657287222365 H 0.0 **** 0.52
8748 M 26.14897461927947 30.798029999364864 16.795836407465362 M 0.0 **** -1.04
8749 O 27.186849839428913 40.94543380440764 26.643508023339006 O 0.0 **** 0.0
8750 H 26.316340743020234 40.614510823414534 26.8647164232454 H 0.0 **** 0.52
8751 H 27.082580990230213 41.33300659113546 25.774517800638197 H 0.0 **** 0.52
8752 M 27.062065669425046 40.952685609439506 26.56058401634317 M 0.0 **** -1.04
8753 O 12.988049040306503 15.956443339603595 28.309601805718884 O 0.0 **** 0.0
8754 H 13.885227711302127 16.062742209034667 28.625828830517143 H 0.0 **** 0.52
8755 H 12.634344863483284 15.234624720723488 28.82931251449864 H 0.0 **** 0.52
8756 M 13.057620202125266 15.877649542494495 28.416612457778882 M 0.0 **** -1.04
8757 O 34.62222492496673 45.41568027444952 6.535266950216332 O 0.0 **** 0.0
8758 H 34.507918728282846 45.821684224603956 5.676009156338573 H 0.0 **** 0.52
8759 H 35.05051986767104 46.089055854926045 7.063809524112557 H 0.0 **** 0.52
8760 M 34.662419935167065 45.55385409794765 6.492930829221351 M 0.0 **** -1.04
8761 O 42.79529533041543 19.526388654146242 16.113803616993142 O 0.0 **** 0.0
8762 H 42.238272105563674 19.08080622190734 15.475517190772647 H 0.0 **** 0.52
8763 H 42.39645470042141 20.390182030353603 16.218757100745563 H 0.0 **** 0.52
8764 M 42.67293326921925 19.579924406137987 16.045531089198356 M 0.0 **** -1.04
8765 O 19.72456127329124 27.363574592180846 8.550561292409775 O 0.0 **** 0.0
8766 H 19.509705097728755 27.01348516700992 7.685979568325735 H 0.0 **** 0.52
8767 H 20.05960348235452 26.610857645014967 9.037791113496553 H 0.0 **** 0.52
8768 M 19.73994698528073 27.2224017163431 8.502256499735779 M 0.0 **** -1.04
8769 O 18.097552761231462 9.722787718467542 28.16907545438093 O 0.0 **** 0.0
8770 H 18.94392672613143 10.144744251508476 28.021315364284483 H 0.0 **** 0.52
8771 H 18.27787392751501 8.786648184494432 28.083308449673513 H 0.0 **** 0.52
8772 M 18.228983094887855 9.656965824528509 28.139181156759694 M 0.0 **** -1.04
8773 O 27.100877263093096 48.21968785816222 42.372919046177145 O 0.0 **** 0.0
8774 H 26.953716877205917 48.94733477220403 41.76868127848609 H 0.0 **** 0.52
8775 H 28.040982677800244 48.04827410396992 42.31771268779953 H 0.0 **** 0.52
8776 M 27.202384140290132 48.2908924500714 42.288501681478074 M 0.0 **** -1.04
8777 O 41.491312644441194 18.585626700316364 25.76841940013145 O 0.0 **** 0.0
8778 H 40.68569960263683 18.718384943092282 25.26882727283717 H 0.0 **** 0.52
8779 H 41.29394085855577 17.85284485260888 26.351774879886662 H 0.0 **** 0.52
8780 M 41.36291769313186 18.508816225169113 25.779142258934968 M 0.0 **** -1.04
8781 O 38.06568734998269 2.3428161622246364 46.38668409099114 O 0.0 **** 0.0
8782 H 38.66888565439893 1.6064837315825358 46.28571060006592 H 0.0 **** 0.52
8783 H 37.423373068615994 2.0405601226779737 47.02879163504782 H 0.0 **** 0.52
8784 M 38.06068011009599 2.2098632146774833 46.45595612584813 M 0.0 **** -1.04
8785 O 15.746466544882384 38.38313917690821 9.160105367130514 O 0.0 **** 0.0
8786 H 16.463759233826572 38.20205474097742 9.767500448905833 H 0.0 **** 0.52
8787 H 16.046320119776354 38.02996060179635 8.322501127199589 H 0.0 **** 0.52
8788 M 15.876673721197946 38.31474707159939 9.130636004372635 M 0.0 **** -1.04
8789 O 3.798324404737928 5.743925342146852 4.564227456495701 O 0.0 **** 0.0
8790 H 3.906999424230242 6.687345995773725 4.684132058470041 H 0.0 **** 0.52
8791 H 3.9915486249420673 5.368965837535839 5.423469945951624 H 0.0 **** 0.52
8792 M 3.836971195800644 5.8166964797904015 4.689569871454161 M 0.0 **** -1.04
8793 O 5.353954629548433 48.42550337198432 38.425972498790074 O 0.0 **** 0.0
8794 H 5.752629535522473 48.68733253837243 37.59607333049286 H 0.0 **** 0.52
8795 H 6.096019092733641 48.21637722903092 38.99327663171823 H 0.0 **** 0.52
8796 M 5.499983592857035 48.432250170580545 38.39235672147163 M 0.0 **** -1.04
8797 O 37.877520111593874 7.832872317032589 18.31409265602451 O 0.0 **** 0.0
8798 H 38.04879901060894 8.696638981730793 17.938858889817663 H 0.0 **** 0.52
8799 H 37.309199492694866 8.005683176368123 19.06467718780452 H 0.0 **** 0.52
8800 M 37.82669404745305 7.965567157645459 18.362143024438176 M 0.0 **** -1.04
8801 O 38.676229527159 27.5074984991805 1.3764041959882363 O 0.0 **** 0.0
8802 H 39.53304866088549 27.924318701529234 1.4677849674677432 H 0.0 **** 0.52
8803 H 38.85131703118297 26.703781931570603 0.8869021174573462 H 0.0 **** 0.52
8804 M 38.80832653415033 27.457970971560123 1.3254394737801576 M 0.0 **** -1.04
8805 O 38.58195104828776 6.869363139282135 37.25785547616793 O 0.0 **** 0.0
8806 H 38.88281193631486 7.7657291142466995 37.40698815277832 H 0.0 **** 0.52
8807 H 37.629371511051374 6.942598504217286 37.19905834699538 H 0.0 **** 0.52
8808 M 38.49852281157668 6.993485194615067 37.26941912473564 M 0.0 **** -1.04
8809 O 28.960702148248245 38.76822053558122 26.9676732040396 O 0.0 **** 0.0
8810 H 28.28294804746261 39.40956083768566 26.754219777850466 H 0.0 **** 0.52
8811 H 29.128507825722632 38.31278590191227 26.142658932156237 H 0.0 **** 0.52
8812 M 28.89542237983414 38.79201887780274 26.834735751539156 M 0.0 **** -1.04
8813 O 40.2664115962637 6.3033062850951325 35.06187730904381 O 0.0 **** 0.0
8814 H 40.86384356832977 7.003124190627112 34.79813589055537 H 0.0 **** 0.52
8815 H 39.72788989514485 6.694115109603821 35.749984673777966 H 0.0 **** 0.52
8816 M 40.273953031576646 6.4429208943953284 35.11620176103715 M 0.0 **** -1.04
8817 O 49.99459112405164 14.276986190060867 26.73000353564871 O 0.0 **** 0.0
8818 H 49.77685727440584 15.154225965609484 26.414928250000656 H 0.0 **** 0.52
8819 H 49.68922525968033 13.69068954011695 26.037735322688103 H 0.0 **** 0.52
8820 M 49.92762819251782 14.314231255541557 26.60105079354624 M 0.0 **** -1.04
8821 O 34.10532126929882 42.718287890873654 49.43989503130369 O 0.0 **** 0.0
8822 H 34.313085148772664 43.49196187726192 48.91597592452358 H 0.0 **** 0.52
8823 H 34.692979211024564 42.03921747505692 49.10860754657275 H 0.0 **** 0.52
8824 M 34.20714544385887 42.73039835513254 49.33041813969819 M 0.0 **** -1.04
8825 O 19.821921707920747 46.044334335272865 8.459634131865355 O 0.0 **** 0.0
8826 H 19.171967310746417 46.72350583429472 8.279315243970691 H 0.0 **** 0.52
8827 H 20.61656735572586 46.35052510672688 8.022582529449581 H 0.0 **** 0.52
8828 M 19.84044440044195 46.170472749763384 8.380603003987844 M 0.0 **** -1.04
8829 O 42.98710504019608 31.12622398005948 48.726228963586394 O 0.0 **** 0.0
8830 H 42.37798077511933 30.593298564737196 49.23729400067685 H 0.0 **** 0.52
8831 H 42.83647297813348 32.02119867053036 49.030462187273905 H 0.0 **** 0.52
8832 M 42.889847260348674 31.17257026920533 48.83059751686077 M 0.0 **** -1.04
8833 O 13.771228254249989 45.44929039496776 10.629759797074565 O 0.0 **** 0.0
8834 H 14.724464829102377 45.4120510322173 10.551139243149635 H 0.0 **** 0.52
8835 H 13.605249221595276 46.21837962589582 11.17490464484286 H 0.0 **** 0.52
8836 M 13.872007602133952 45.54297677211662 10.689481158092223 M 0.0 **** -1.04
8837 O 34.940004904787415 7.401708193447574 45.157000806347014 O 0.0 **** 0.0
8838 H 35.562296306787786 8.076260678839779 45.428957877134316 H 0.0 **** 0.52
8839 H 34.326357929099636 7.859043881096247 44.58210020733992 H 0.0 **** 0.52
8840 M 34.941111724943426 7.54660396328006 45.11822028310683 M 0.0 **** -1.04
8841 O 36.96812457732603 14.40643060764287 13.24273584957275 O 0.0 **** 0.0
8842 H 37.131316389586274 13.887646930495306 12.455041477051392 H 0.0 **** 0.52
8843 H 36.700745332878476 13.765265127882659 13.901252952403697 H 0.0 **** 0.52
8844 M 36.95478728345303 14.257941781693487 13.226199274887351 M 0.0 **** -1.04
8845 O 19.735033703299194 20.937807901790706 12.358354632361069 O 0.0 **** 0.0
8846 H 20.153763094141134 20.395641837197736 13.026898595448563 H 0.0 **** 0.52
8847 H 20.27849400668573 21.72441897961658 12.31227487394747 H 0.0 **** 0.52
8848 M 19.85820598958727 20.969100317224626 12.438037423363264 M 0.0 **** -1.04
8849 O 40.22600923938963 8.651492548332962 27.28962739080336 O 0.0 **** 0.0
8850 H 40.717645969935056 9.457448750283614 27.44760269742016 H 0.0 **** 0.52
8851 H 40.18532396692894 8.578185096982514 26.336108001096946 H 0.0 **** 0.52
8852 M 40.283736010749536 8.745280830040063 27.18778765563194 M 0.0 **** -1.04
8853 O 34.06800046187437 44.14043817866843 17.383441297700674 O 0.0 **** 0.0
8854 H 34.94517306446338 44.12489106782432 17.000617189273946 H 0.0 **** 0.52
8855 H 33.62610943271667 43.381950140938976 17.001792523769232 H 0.0 **** 0.52
8856 M 34.12372194186725 44.04135229524093 17.285579007753032 M 0.0 **** -1.04
8857 O 24.874710694634445 28.145347394917206 4.008971917531616 O 0.0 **** 0.0
8858 H 24.215963835770008 28.761374114850785 3.6883600909826004 H 0.0 **** 0.52
8859 H 25.58242410457575 28.19479852150938 3.366378422306993 H 0.0 **** 0.52
8860 M 24.88097844973235 28.230536550313413 3.885668813872733 M 0.0 **** -1.04
8861 O 14.077664820462724 10.78872890567219 27.215541965399684 O 0.0 **** 0.0
8862 H 13.427443383992237 10.182655823824614 26.860414642181535 H 0.0 **** 0.52
8863 H 14.13234250507027 10.564740214855577 28.14455667520049 H 0.0 **** 0.52
8864 M 14.001427537598147 10.682470605959855 27.289006625479693 M 0.0 **** -1.04
8865 O 3.623303109727118 14.583090762166382 2.713231238743397 O 0.0 **** 0.0
8866 H 2.9279778192712484 14.662754139022994 2.060234418881592 H 0.0 **** 0.52
8867 H 4.041539646658826 13.744667240478513 2.5173887972853066 H 0.0 **** 0.52
8868 M 3.5878326280721353 14.485959838845599 2.6045692156304554 M 0.0 **** -1.04
8869 O 19.567663834228412 6.756129445206963 35.84761888282313 O 0.0 **** 0.0
8870 H 19.176655985851085 5.896821882818679 36.005512943724995 H 0.0 **** 0.52
8871 H 18.9195681327635 7.221134834759068 35.3184965739685 H 0.0 **** 0.52
8872 M 19.434645285130273 6.705654133031581 35.800097233487165 M 0.0 **** -1.04
8873 O 9.83161496387715 5.064478408992983 10.607078602202957 O 0.0 **** 0.0
8874 H 9.690423071627563 4.177540891708832 10.938191052559715 H 0.0 **** 0.52
8875 H 10.539810802266345 4.9727854921102 9.969676593270442 H 0.0 **** 0.52
8876 M 9.904199023210623 4.939201282246576 10.567868857013472 M 0.0 **** -1.04
8877 O 48.48283421414657 13.297985376256406 48.818990681680226 O 0.0 **** 0.0
8878 H 49.04837590506968 12.541423504406922 48.66405341440369 H 0.0 **** 0.52
8879 H 49.06575657420389 13.961960276511789 49.18718625183653 H 0.0 **** 0.52
8880 M 48.629851591743495 13.28613361687728 48.84628976375518 M 0.0 **** -1.04
8881 O 2.932119162247055 34.80601051673352 35.281178010225496 O 0.0 **** 0.0
8882 H 2.8004386825205145 33.859219512561594 35.33093666135728 H 0.0 **** 0.52
8883 H 3.8782571195851645 34.91183137964541 35.18191363148361 H 0.0 **** 0.52
8884 M 3.036380403101653 34.69835567476957 35.27484100318859 M 0.0 **** -1.04
8885 O 47.93367873487889 6.192200065029339 30.093892442650787 O 0.0 **** 0.0
8886 H 47.31353741044714 5.499720546635374 30.32220531256052 H 0.0 **** 0.52
8887 H 48.78877976574756 5.839202234097528 30.339705705350944 H 0.0 **** 0.52
8888 M 47.963756698202694 6.05836582788704 30.154586506123618 M 0.0 **** -1.04
8889 O 14.927365028379146 24.802804057207478 31.45835192492808 O 0.0 **** 0.0
8890 H 15.694154217415365 25.270541968776737 31.78923535449148 H 0.0 **** 0.52
8891 H 14.2692603363347 25.484948140509463 31.32490624674851 H 0.0 **** 0.52
8892 M 14.941278128620594 24.95000374365495 31.48362645561518 M 0.0 **** -1.04
8893 O 41.83125731345275 46.06509174450652 15.448521762111486 O 0.0 **** 0.0
8894 H 41.86833584480575 45.13607646593955 15.220961091904899 H 0.0 **** 0.52
8895 H 42.7459821259995 46.31865928092071 15.571858482102614 H 0.0 **** 0.52
8896 M 41.95309975483619 45.97862645281067 15.435179967753138 M 0.0 **** -1.04
8897 O 15.404038914579203 28.339905551861573 24.532900354805122 O 0.0 **** 0.0
8898 H 15.52102099367832 29.281922664004597 24.65597853361504 H 0.0 **** 0.52
8899 H 14.735918003691452 28.09535364017654 25.17324184700088 H 0.0 **** 0.52
8900 M 15.3334867841222 28.42918965364834 24.630627558234366 M 0.0 **** -1.04
8901 O 31.345077509815333 47.77940887547032 4.406300912091713 O 0.0 **** 0.0
8902 H 32.21781432063622 47.409994957078595 4.540810996329264 H 0.0 **** 0.52
8903 H 31.404894435668062 48.237270034298454 3.567841054051968 H 0.0 **** 0.52
8904 M 31.46445608239805 47.79073118377595 4.316186608428293 M 0.0 **** -1.04
8905 O 3.5946528986387465 7.362767769386092 37.91179267427475 O 0.0 **** 0.0
8906 H 3.439545246931501 7.273118891566776 38.85207642164152 H 0.0 **** 0.52
8907 H 4.112412451182249 8.16360391394889 37.82924781065962 H 0.0 **** 0.52
8908 M 3.6410768797721365 7.453808284150784 38.021593909737376 M 0.0 **** -1.04
8909 O 47.072085443303514 13.766715613200503 46.433525551868655 O 0.0 **** 0.0
8910 H 47.50341698646646 13.516192098803174 47.250483701808186 H 0.0 **** 0.52
8911 H 46.94056286735156 14.711619839578859 46.51153748042589 H 0.0 **** 0.52
8912 M 47.11046503225211 13.85560459327553 46.54809296114091 M 0.0 **** -1.04
8913 O 11.710584501398756 4.668181672284078 8.316321525304481 O 0.0 **** 0.0
8914 H 12.326931926608246 4.306734322682885 7.679375526146046 H 0.0 **** 0.52
8915 H 12.194541846310216 5.374302609181079 8.744582354286052 H 0.0 **** 0.52
8916 M 11.851437101422519 4.7123042018871 8.289607104517657 M 0.0 **** -1.04
8917 O 47.58418026451612 46.75799446649234 44.38085185351398 O 0.0 **** 0.0
8918 H 47.45431696068905 47.58283423051331 43.91287239591784 H 0.0 **** 0.52
8919 H 48.04857839134857 47.00613732656644 45.18021919371735 H 0.0 **** 0.52
8920 M 47.62700527392336 46.89534960703884 44.42327370949322 M 0.0 **** -1.04
8921 O 22.94974345198769 18.601930952893998 42.253401808226535 O 0.0 **** 0.0
8922 H 22.02555955260298 18.39306699882026 42.11742641418857 H 0.0 **** 0.52
8923 H 22.969090902217307 19.074326142616517 43.08568659422389 H 0.0 **** 0.52
8924 M 22.83391325426134 18.635666986064912 42.34253817908358 M 0.0 **** -1.04
8925 O 0.5330414173045888 31.52473491022366 12.404616740403673 O 0.0 **** 0.0
8926 H 1.39851817286607 31.438843209194268 12.804368096544376 H 0.0 **** 0.52
8927 H 0.1590528761038159 30.644822009295257 12.450602546404617 H 0.0 **** 0.52
8928 M 0.5959575069234001 31.401100410875497 12.461676402863361 M 0.0 **** -1.04
8929 O 39.393377391519394 22.954741032434075 2.315880805432812 O 0.0 **** 0.0
8930 H 40.27121413061533 23.115657966150952 2.6619112116204633 H 0.0 **** 0.52
8931 H 38.92170578436878 22.543145493170947 3.039995769128126 H 0.0 **** 0.52
8932 M 39.445371448549686 22.92265142942251 2.452872955675403 M 0.0 **** -1.04
8933 O 30.189198477668732 23.280038799896676 5.78643373753888 O 0.0 **** 0.0
8934 H 30.26396160933721 22.345405171636703 5.593823855906455 H 0.0 **** 0.52
8935 H 30.778656814735967 23.42026647593233 6.527448535003342 H 0.0 **** 0.52
8936 M 30.274227466504634 23.178344298575045 5.856636201274006 M 0.0 **** -1.04
8937 O 14.84417032061072 32.89850279239841 40.16402324442488 O 0.0 **** 0.0
8938 H 14.5323611134685 32.812124210189495 41.06487944607278 H 0.0 **** 0.52
8939 H 14.584632055614112 32.080158470604616 39.74072406709169 H 0.0 **** 0.52
8940 M 14.771030204532602 32.782686877927105 40.22515585815329 M 0.0 **** -1.04
8941 O 28.701334653143874 43.838339434881554 26.60332300349046 O 0.0 **** 0.0
8942 H 28.18075484801939 43.03596642707009 26.565616267410192 H 0.0 **** 0.52
8943 H 29.5900917547216 43.558298363532174 26.384424503200123 H 0.0 **** 0.52
8944 M 28.748466119314216 43.699776896208114 26.57047481720835 M 0.0 **** -1.04
8945 O 9.261005348245668 38.686371356638006 4.123604292927411 O 0.0 **** 0.0
8946 H 9.210492261419228 38.860842900053925 5.063410530839853 H 0.0 **** 0.52
8947 H 9.029325743381069 39.51899173919635 3.7121470713709357 H 0.0 **** 0.52
8948 M 9.224881617910244 38.815292112513184 4.1912390589004005 M 0.0 **** -1.04
8949 O 48.0712363801541 10.018215403000035 24.96078676873549 O 0.0 **** 0.0
8950 H 47.497222095732354 9.752265859662925 24.24245176791725 H 0.0 **** 0.52
8951 H 47.50101597541488 10.504668982849989 25.556136011792173 H 0.0 **** 0.52
8952 M 47.924760216788336 10.046442333858119 24.945043063835417 M 0.0 **** -1.04
8953 O 43.773048407572645 28.464822651246074 12.267703413175354 O 0.0 **** 0.0
8954 H 43.424047526474126 27.584920137548934 12.409821993210372 H 0.0 **** 0.52
8955 H 43.06616651143278 29.050178593214962 12.539558548563065 H 0.0 **** 0.52
8956 M 43.637881769787676 28.427117323046897 12.32069732864975 M 0.0 **** -1.04
8957 O 16.364374161837716 22.546690954888874 28.82495864530028 O 0.0 **** 0.0
8958 H 15.66722399786812 22.04811247228011 29.25114047377412 H 0.0 **** 0.52
8959 H 17.07989691412405 22.550417043866616 29.460758692109916 H 0.0 **** 0.52
8960 M 16.36672562953433 22.483344235139953 28.96090569603222 M 0.0 **** -1.04
8961 O 42.264791788813476 1.6179526839382217 44.71793391816409 O 0.0 **** 0.0
8962 H 42.31640443360704 1.920888562869153 43.811404593357864 H 0.0 **** 0.52
8963 H 42.94730814426987 2.109787153218128 45.17455278065071 H 0.0 **** 0.52
8964 M 42.358769504968016 1.7196943155978806 44.66033949455726 M 0.0 **** -1.04
8965 O 28.81006236984287 13.890479998899213 20.270688063693914 O 0.0 **** 0.0
8966 H 29.25558993781657 14.730949562539237 20.164179236928614 H 0.0 **** 0.52
8967 H 28.242828995855305 14.01428662315174 21.031705923796824 H 0.0 **** 0.52
8968 M 28.79448249316548 14.013920291345544 20.3544736840561 M 0.0 **** -1.04
8969 O 2.3047745883054085 44.604656408431445 44.86465154671881 O 0.0 **** 0.0
8970 H 2.886668901041632 44.20442227530926 45.510748095457565 H 0.0 **** 0.52
8971 H 1.5844695182212174 43.981172273457624 44.77160527875007 H 0.0 **** 0.52
8972 M 2.2870557881018114 44.473607036060024 44.935448595113485 M 0.0 **** -1.04
8973 O 44.87504261914449 45.11239269062651 17.892579305042588 O 0.0 **** 0.0
8974 H 44.829041967358364 45.86406737626073 17.301735236925673 H 0.0 **** 0.52
8975 H 44.03753736547452 45.11979748628294 18.35600099243807 H 0.0 **** 0.52
8976 M 44.76194247840479 45.20956458316463 17.87626797535367 M 0.0 **** -1.04
8977 O 13.114859789907158 3.6964437432334742 40.24835794804321 O 0.0 **** 0.0
8978 H 12.167870057727335 3.830833575466285 40.2854867436027 H 0.0 **** 0.52
8979 H 13.220853519524447 2.7461502322234947 40.204364981293686 H 0.0 **** 0.52
8980 M 13.007201606966014 3.5919975003518654 40.247479524607186 M 0.0 **** -1.04
8981 O 37.19713710506145 22.702538998394438 9.33180203866992 O 0.0 **** 0.0
8982 H 38.11712729027901 22.85956360206516 9.119220750130758 H 0.0 **** 0.52
8983 H 36.8631519240035 22.195015463584124 8.592138286587325 H 0.0 **** 0.52
8984 M 37.27215291736294 22.65767030362642 9.209902809387795 M 0.0 **** -1.04
8985 O 14.950813110594936 4.274891929286766 37.617641018635766 O 0.0 **** 0.0
8986 H 15.666263947019445 4.4844828127118825 38.217999642952435 H 0.0 **** 0.52
8987 H 14.22174774826594 4.032380164408301 38.188500704916436 H 0.0 **** 0.52
8988 M 14.949070102058272 4.270677635978698 37.76757129570864 M 0.0 **** -1.04
8989 O 18.1202902797682 9.716534235020305 13.51567962803539 O 0.0 **** 0.0
8990 H 17.451852584501168 9.038038489683037 13.610879850533301 H 0.0 **** 0.52
8991 H 17.877076155168233 10.384633870774211 14.156552239868578 H 0.0 **** 0.52
8992 M 18.003587642870112 9.715203098427672 13.609906397084387 M 0.0 **** -1.04
8993 O 48.37097487264597 38.92363471405222 5.111709952608095 O 0.0 **** 0.0
8994 H 49.23587503102576 38.52944938244737 4.998592169856643 H 0.0 **** 0.52
8995 H 48.28084999332788 39.52158322847296 4.369709480515688 H 0.0 **** 0.52
8996 M 48.470156239873596 38.94971890691065 5.002244025033384 M 0.0 **** -1.04
8997 O 18.23005508462242 25.871670875848196 37.28981293538921 O 0.0 **** 0.0
8998 H 18.18189628186059 26.46690397807754 36.54174337354541 H 0.0 **** 0.52
8999 H 19.077871680826902 26.060079467649643 37.69222835961377 H 0.0 **** 0.52
9000 M 18.3324213661582 25.971987672769117 37.24556472396696 M 0.0 **** -1.04
9001 O 12.242111327657012 21.58553899686841 7.789765293923597 O 0.0 **** 0.0
9002 H 12.533863797532762 22.494540113124543 7.859235491818625 H 0.0 **** 0.52
9003 H 12.166169508306051 21.42913542647441 6.848489776776917 H 0.0 **** 0.52
9004 M 12.269737907307704 21.681880583487946 7.678162820427547 M 0.0 **** -1.04
9005 O 21.316217801008005 6.0722881683037855 45.46618861877808 O 0.0 **** 0.0
9006 H 21.92630073565094 6.222571402934648 44.74407952269204 H 0.0 **** 0.52
9007 H 20.468495955898277 6.360990148762667 45.12818401189421 H 0.0 **** 0.52
9008 M 21.28579694110682 6.128484030092238 45.330480847343566 M 0.0 **** -1.04
9009 O 15.23055723146422 27.57836058766415 42.544656035652416 O 0.0 **** 0.0
9010 H 14.654686873027195 27.127896548082038 41.92685096322102 H 0.0 **** 0.52
9011 H 14.838423383230056 27.413573990039822 43.40215561962285 H 0.0 **** 0.52
9012 M 15.106640994551539 27.499600622525826 42.575339955917144 M 0.0 **** -1.04
9013 O 9.454576844773248 8.277317608742464 36.418788332409044 O 0.0 **** 0.0
9014 H 10.043845101805655 8.792404481815737 35.86772001727574 H 0.0 **** 0.52
9015 H 9.540104783805587 7.382258215768395 36.09048573822183 H 0.0 **** 0.52
9016 M 9.540959061555288 8.228676229113887 36.30621798697715 M 0.0 **** -1.04
9017 O 7.836434003931029 15.49325911941723 25.278547615993155 O 0.0 **** 0.0
9018 H 7.8262131165434985 16.31531413825928 24.788293237928457 H 0.0 **** 0.52
9019 H 7.152601240541287 15.599678495496505 25.939815912752216 H 0.0 **** 0.52
9020 M 7.747586076076522 15.61211543827913 25.300439875162976 M 0.0 **** -1.04
9021 O 32.38194217878664 8.567570087581567 39.10554491608984 O 0.0 **** 0.0
9022 H 31.52137106037403 8.337191708281058 39.45564616137164 H 0.0 **** 0.52
9023 H 32.72966227084281 9.208370227052809 39.72578229420163 H 0.0 **** 0.52
9024 M 32.31629125315398 8.620109649351507 39.229760464398396 M 0.0 **** -1.04
9025 O 0.20048639857743922 16.929127241901043 46.356292234927786 O 0.0 **** 0.0
9026 H 0.029996973486071 17.776359978221905 45.944759168985996 H 0.0 **** 0.52
9027 H -0.587666394225792 16.414693566448733 46.18193031523699 H 0.0 **** 0.52
9028 M 0.0777679226252701 16.971730155047737 46.28129016001385 M 0.0 **** -1.04
9029 O 11.334086131632613 36.01837639690919 26.57132396887243 O 0.0 **** 0.0
9030 H 11.837588755959109 36.63047051879552 27.10802941211798 H 0.0 **** 0.52
9031 H 11.616978833663325 36.1967785319482 25.674455688038982 H 0.0 **** 0.52
9032 M 11.434754464031228 36.11956920821228 26.52521923144062 M 0.0 **** -1.04
9033 O 9.5878763132011 35.232417540070635 23.241270245035448 O 0.0 **** 0.0
9034 H 10.463826776453194 34.90097707454881 23.043567927593088 H 0.0 **** 0.52
9035 H 9.641870253234394 36.17208930168124 23.067112096434023 H 0.0 **** 0.52
9036 M 9.706920269185987 35.310279072835066 23.193667534565964 M 0.0 **** -1.04
9037 O 36.07565508857849 34.92379932249257 19.998810906956354 O 0.0 **** 0.0
9038 H 36.16305916983276 34.04275548265347 20.36261213357186 H 0.0 **** 0.52
9039 H 36.151716602224916 35.50465841025216 20.755809123606305 H 0.0 **** 0.52
9040 M 36.096580473634916 34.88537207973037 20.142287132955445 M 0.0 **** -1.04
9041 O 25.893050200675127 15.80421890441599 45.26097941897227 O 0.0 **** 0.0
9042 H 26.63621821567226 16.293961340806376 44.90872764830584 H 0.0 **** 0.52
9043 H 26.285913332643574 15.17144723359199 45.86221680927044 H 0.0 **** 0.52
9044 M 26.03847611687203 15.785909084750756 45.292853332665395 M 0.0 **** -1.04
9045 O 16.84433452350777 27.927533353941485 14.726614111478142 O 0.0 **** 0.0
9046 H 16.43050199774301 28.776983452403286 14.879600853333443 H 0.0 **** 0.52
9047 H 17.382796330632697 28.059948094740307 13.946387525968511 H 0.0 **** 0.52
9048 M 16.860288764886455 28.053223892871884 14.646319377563529 M 0.0 **** -1.04
9049 O 32.43282002441255 13.571389280056515 17.701566410315976 O 0.0 **** 0.0
9050 H 32.701457144216576 12.66562218178533 17.547782390370784 H 0.0 **** 0.52
9051 H 33.04321183563628 14.094297539696683 17.18174090859756 H 0.0 **** 0.52
9052 M 32.54534726650078 13.522378713919196 17.61533586992043 M 0.0 **** -1.04
9053 O 28.106782089459053 19.801887137362243 43.53151764881332 O 0.0 **** 0.0
9054 H 28.981616098131436 19.672049690450024 43.16540754327255 H 0.0 **** 0.52
9055 H 27.521311890464602 19.758038094154386 42.77552097142598 H 0.0 **** 0.52
9056 M 28.143824125384942 19.77965249235875 43.38787386762162 M 0.0 **** -1.04
9057 O 15.488470487677414 38.6309996392149 12.423372585866268 O 0.0 **** 0.0
9058 H 15.714709191278098 37.72803602571355 12.200433890485556 H 0.0 **** 0.52
9059 H 16.328799506040085 39.088287291390806 12.454405028929258 H 0.0 **** 0.52
9060 M 15.625004038383077 38.573947468383984 12.3988060258065 M 0.0 **** -1.04
9061 O 42.573938943118854 9.646034165326782 11.539455157993054 O 0.0 **** 0.0
9062 H 42.46043730108102 10.478183026162462 11.080243714544416 H 0.0 **** 0.52
9063 H 43.45637098559053 9.693328058927648 11.907294589662499 H 0.0 **** 0.52
9064 M 42.67237207975937 9.758614107236625 11.527757717815753 M 0.0 **** -1.04
9065 O 8.221784760366063 21.280879816164244 26.02565811400194 O 0.0 **** 0.0
9066 H 7.973338973650648 20.74891358936692 25.269671791503885 H 0.0 **** 0.52
9067 H 7.3933812922467155 21.625122576581703 26.35953452633704 H 0.0 **** 0.52
9068 M 8.083934676818018 21.256848588734783 25.97162299465328 M 0.0 **** -1.04
9069 O 49.76609103873974 12.397116534634883 33.96145627907084 O 0.0 **** 0.0
9070 H 49.82942085604733 12.69499788684001 33.053994949582545 H 0.0 **** 0.52
9071 H 48.84626658689698 12.526147929361155 34.19276241712295 H 0.0 **** 0.52
9072 M 49.656449251784274 12.451766501013557 33.87490005157675 M 0.0 **** -1.04
9073 O 42.16421723911341 35.94385083708858 7.109763906471111 O 0.0 **** 0.0
9074 H 41.67567463022024 36.46646429980662 7.7457112357252 H 0.0 **** 0.52
9075 H 41.81088848610627 35.05926243141681 7.204054901301885 H 0.0 **** 0.52
9076 M 42.05644695537952 35.89751338692975 7.203243919456169 M 0.0 **** -1.04
9077 O 20.870834772655297 30.68626656921016 9.176524359003219 O 0.0 **** 0.0
9078 H 20.465615225838302 29.872951425950873 8.875619517215114 H 0.0 **** 0.52
9079 H 20.160500879292933 31.164289539398084 9.604482186691143 H 0.0 **** 0.52
9080 M 20.728029256793942 30.64334480574604 9.192788569519031 M 0.0 **** -1.04
9081 O 4.317444523045509 19.09736322940512 31.41058436425398 O 0.0 **** 0.0
9082 H 4.79233367576586 18.282136730815097 31.572182609625425 H 0.0 **** 0.52
9083 H 5.002691820745618 19.748260878915474 31.258937034410962 H 0.0 **** 0.52
9084 M 4.465956720148043 19.07632691314889 31.411858624095508 M 0.0 **** -1.04
9085 O 14.927282518976654 32.83109641985142 20.839908615336352 O 0.0 **** 0.0
9086 H 15.091599474983106 32.368422382397895 21.66159079988541 H 0.0 **** 0.52
9087 H 15.525119262878206 33.57832567519408 20.861535502775556 H 0.0 **** 0.52
9088 M 15.024847353183567 32.867522715772544 20.947862638631666 M 0.0 **** -1.04
9089 O 28.231549776114047 24.984767794461522 48.768795752287694 O 0.0 **** 0.0
9090 H 28.5468035896105 25.57750938139693 49.451072195565686 H 0.0 **** 0.52
9091 H 27.461844407926666 24.564736455826363 49.1526639746254 H 0.0 **** 0.52
9092 M 28.173374255146527 25.00687738271786 48.90527519745541 M 0.0 **** -1.04
9093 O 22.396090270747973 13.273681680061621 48.958923659875225 O 0.0 **** 0.0
9094 H 22.05476394746409 13.486669602697567 48.090384431106635 H 0.0 **** 0.52
9095 H 22.991713657494557 12.539466788546548 48.80928969985193 H 0.0 **** 0.52
9096 M 22.42864384173359 13.206957768697613 48.82858513449467 M 0.0 **** -1.04
9097 O 34.88536423451348 14.617029535459652 33.67379197135726 O 0.0 **** 0.0
9098 H 35.421869792305586 14.955268735304406 34.390720412505935 H 0.0 **** 0.52
9099 H 34.85474366276631 13.671900190286076 33.82218939240273 H 0.0 **** 0.52
9100 M 34.95012453328806 14.539339898371972 33.78456478780965 M 0.0 **** -1.04
9101 O 18.539960293807237 38.96852499047885 16.554344446902263 O 0.0 **** 0.0
9102 H 17.600594531663138 39.0260072719435 16.729030741292917 H 0.0 **** 0.52
9103 H 18.94518653502624 39.49100761454983 17.246466025277996 H 0.0 **** 0.52
9104 M 18.471583963988046 39.04276754237134 16.66530756705913 M 0.0 **** -1.04
9105 O 38.83310049530243 14.331777999138048 7.992183908224765 O 0.0 **** 0.0
9106 H 39.6086428921888 14.655892780003253 7.534240594482645 H 0.0 **** 0.52
9107 H 38.71892223603075 14.934463078167237 8.727005593831514 H 0.0 **** 0.52
9108 M 38.917763288359595 14.45042016976928 8.027628164863334 M 0.0 **** -1.04
9109 O 1.441784878736982 4.188019829286574 39.06890791564861 O 0.0 **** 0.0
9110 H 1.3442949722047928 5.138603073425671 39.12471825962773 H 0.0 **** 0.52
9111 H 1.8955072920551856 3.9455005239933527 39.87609297892068 H 0.0 **** 0.52
9112 M 1.4873872290581431 4.278660517660491 39.17938210864538 M 0.0 **** -1.04
9113 O 37.31860600780421 11.624696635068666 48.544961406668754 O 0.0 **** 0.0
9114 H 37.984634483624475 12.24087193127832 48.849859086468626 H 0.0 **** 0.52
9115 H 36.48635626509619 12.036283857519805 48.777741680406166 H 0.0 **** 0.52
9116 M 37.29732724030517 11.756262883298405 48.613791439666485 M 0.0 **** -1.04
9117 O 34.052203395061014 26.414133181161986 8.517063930386735 O 0.0 **** 0.0
9118 H 34.91210531102135 26.01046492775596 8.39937813046734 H 0.0 **** 0.52
9119 H 33.90656716623616 26.90818846918785 7.710263090617 H 0.0 **** 0.52
9120 M 34.14363859166195 26.42570402928659 8.398718334519184 M 0.0 **** -1.04
9121 O 38.59078993627393 20.180510678859612 26.304064497052963 O 0.0 **** 0.0
9122 H 38.57396804227448 20.77757431733547 25.556093357447878 H 0.0 **** 0.52
9123 H 38.86711608013743 20.726051586844427 27.04044647401703 H 0.0 **** 0.52
9124 M 38.624009490805136 20.326779279088633 26.302580891381893 M 0.0 **** -1.04
9125 O 13.775679608469005 38.38057073147311 5.243283669642555 O 0.0 **** 0.0
9126 H 13.500135055058188 38.44339921322748 4.328758617636196 H 0.0 **** 0.52
9127 H 14.718835763478054 38.54245814907943 5.221422188666832 H 0.0 **** 0.52
9128 M 13.86114215857048 38.40933689949658 5.123413877920859 M 0.0 **** -1.04
9129 O 46.212702692612226 47.52621907790635 28.366680850509283 O 0.0 **** 0.0
9130 H 46.97326179159824 47.73483428185902 28.909136152411868 H 0.0 **** 0.52
9131 H 45.534139384633924 47.27232646701387 28.992236198308845 H 0.0 **** 0.52
9132 M 46.223199011950015 47.52042267062096 28.516200747111498 M 0.0 **** -1.04
9133 O 17.470967867959573 26.788463192061815 9.986597007769264 O 0.0 **** 0.0
9134 H 18.112523480024834 27.112691091405498 9.354528994745657 H 0.0 **** 0.52
9135 H 17.562759227829787 27.369857090969855 10.741438162640629 H 0.0 **** 0.52
9136 M 17.564845467445764 26.904393807139016 10.0023140536599 M 0.0 **** -1.04
9137 O 20.955618237811862 24.468232107405967 48.834822689246366 O 0.0 **** 0.0
9138 H 20.541092406880637 25.314848641068124 49.00106259805952 H 0.0 **** 0.52
9139 H 20.420042433496448 23.839627878722794 49.31881138094595 H 0.0 **** 0.52
9140 M 20.833993382619568 24.496139650792117 48.91805981990086 M 0.0 **** -1.04
9141 O 24.020643951345715 43.20985347664727 44.93398353759483 O 0.0 **** 0.0
9142 H 24.19027945622931 43.606800976010206 45.788316636571466 H 0.0 **** 0.52
9143 H 24.403849024390773 42.334872182586864 44.99554939315226 H 0.0 **** 0.52
9144 M 24.091413602931457 43.14865938833791 45.05122994859079 M 0.0 **** -1.04
9145 O 39.565080531299174 8.894816973037251 0.7299662161358161 O 0.0 **** 0.0
9146 H 38.635797447369015 9.120046478713892 0.6859902871903129 H 0.0 **** 0.52
9147 H 39.6434370696596 8.096272555733252 0.20803256171745932 H 0.0 **** 0.52
9148 M 39.45615175995623 8.82142534355755 0.657522635122555 M 0.0 **** -1.04
9149 O 22.733519383693746 7.513324866219025 15.22042549851001 O 0.0 **** 0.0
9150 H 22.16706363558751 7.788155362706833 15.941413978026219 H 0.0 **** 0.52
9151 H 23.40697118291024 6.9749298764230785 15.636145549587809 H 0.0 **** 0.52
9152 M 22.747216837556195 7.479584729650695 15.365938209649016 M 0.0 **** -1.04
9153 O 4.188746382607904 9.972303677867615 47.52600126568951 O 0.0 **** 0.0
9154 H 4.659181263576213 10.802548311687623 47.60092119002338 H 0.0 **** 0.52
9155 H 3.907916319194608 9.937255230787784 46.61159668373885 H 0.0 **** 0.52
9156 M 4.213018022419422 10.074098471037836 47.418535957234596 M 0.0 **** -1.04
9157 O 19.59365222920715 49.32101004701375 35.344973477802846 O 0.0 **** 0.0
9158 H 19.970322316245884 49.94579158195272 35.96464822346802 H 0.0 **** 0.52
9159 H 18.647426491335892 49.432023861546234 35.437502349246145 H 0.0 **** 0.52
9160 M 19.52074160484122 49.41520027849129 35.43614475502746 M 0.0 **** -1.04
9161 O 48.92918921988362 32.47610983414196 10.28414738514867 O 0.0 **** 0.0
9162 H 48.59979717202158 33.29995904675404 10.643315318033963 H 0.0 **** 0.52
9163 H 49.61418301553628 32.20475444741822 10.895195262413417 H 0.0 **** 0.52
9164 M 48.97471049728749 32.54683589772823 10.408346645167079 M 0.0 **** -1.04
9165 O 9.672419827537006 48.64357483158414 41.71895801302187 O 0.0 **** 0.0
9166 H 9.432442609890273 48.44184838984002 42.62336201606363 H 0.0 **** 0.52
9167 H 9.740889800701872 47.789322142043936 41.292586893965606 H 0.0 **** 0.52
9168 M 9.650464907790763 48.50839629663304 41.78015268025206 M 0.0 **** -1.04
9169 O 32.21023145124381 35.79212511991037 30.442371570001875 O 0.0 **** 0.0
9170 H 32.09766781268563 35.117825801147205 31.112355446638826 H 0.0 **** 0.52
9171 H 33.120511097278055 35.701013357852354 30.160736894629956 H 0.0 **** 0.52
9172 M 32.31234864068902 35.69414272529723 30.492085683487854 M 0.0 **** -1.04
9173 O 48.1752952021666 36.24741659901524 4.704218759640432 O 0.0 **** 0.0
9174 H 48.30416918062468 37.174151100072855 4.502269872147057 H 0.0 **** 0.52
9175 H 48.997827783893115 35.82956737750722 4.449126845050043 H 0.0 **** 0.52
9176 M 48.29708784606142 36.312560794956426 4.645711390837123 M 0.0 **** -1.04
9177 O 39.192159906005024 1.4354710567576703 42.1615849631507 O 0.0 **** 0.0
9178 H 39.79632626211279 0.693514765304819 42.13489725950095 H 0.0 **** 0.52
9179 H 39.49996113405085 1.9693780049883145 42.893999533260846 H 0.0 **** 0.52
9180 M 39.308902591317505 1.4088378997738786 42.25192660035144 M 0.0 **** -1.04
9181 O 29.637245901104766 23.731318933579335 24.82314990424652 O 0.0 **** 0.0
9182 H 28.736743199694946 24.019233186445057 24.972911007859594 H 0.0 **** 0.52
9183 H 29.889521926043503 23.298289084414172 25.638668360031627 H 0.0 **** 0.52
9184 M 29.5542645605529 23.71274247395122 24.946717667542217 M 0.0 **** -1.04
9185 O 6.329239650747056 21.23022963820856 36.62681154332786 O 0.0 **** 0.0
9186 H 5.525375355281568 21.734506022606336 36.7522558228409 H 0.0 **** 0.52
9187 H 6.361209978064267 21.059829397033532 35.68544591055822 H 0.0 **** 0.52
9188 M 6.230427450379878 21.272970026496164 36.52236372094931 M 0.0 **** -1.04
9189 O 34.002242395338975 1.41265414454741 17.931002413441444 O 0.0 **** 0.0
9190 H 33.60215104584553 0.7679437133427847 17.347475161494128 H 0.0 **** 0.52
9191 H 34.25302270107306 0.9111703895207899 18.70679296351605 H 0.0 **** 0.52
9192 M 33.98312863907324 1.2659273235971589 17.955613996491707 M 0.0 **** -1.04
9193 O 26.564258813397355 47.1126230373765 11.452827595715828 O 0.0 **** 0.0
9194 H 26.084367117348023 47.939006833060134 11.39785150123718 H 0.0 **** 0.52
9195 H 26.115854478513555 46.53326659367914 10.836784901806984 H 0.0 **** 0.52
9196 M 26.445425432037666 47.144245471257555 11.366929028358419 M 0.0 **** -1.04
9197 O 34.28999908620811 20.241730868468007 11.928591606189396 O 0.0 **** 0.0
9198 H 33.56594018217787 19.664802117176365 12.171742657785149 H 0.0 **** 0.52
9199 H 33.87781585362232 21.091418908824085 11.77250174193962 H 0.0 **** 0.52
9200 M 34.144545404225376 20.27664765107568 11.939736385550399 M 0.0 **** -1.04
9201 O 10.157332609105204 40.04147674878235 28.517774085940545 O 0.0 **** 0.0
9202 H 9.986010644144786 39.59525902839986 29.34709126233591 H 0.0 **** 0.52
9203 H 10.893973029893074 39.564080354731914 28.136089031243984 H 0.0 **** 0.52
9204 M 10.229700350150479 39.923242116942376 28.575076568047862 M 0.0 **** -1.04
9205 O 4.7468247073587335 43.01359280318601 3.856790250275445 O 0.0 **** 0.0
9206 H 4.098145636774707 43.50547896679117 3.353310433387037 H 0.0 **** 0.52
9207 H 5.250900353461871 42.536567356836905 3.1975621678888544 H 0.0 **** 0.52
9208 M 4.728313566409499 43.01549507072404 3.707949371186409 M 0.0 **** -1.04
9209 O 3.0865092941058094 1.3350310866916928 24.927846466105525 O 0.0 **** 0.0
9210 H 2.5948614286845597 1.6362723776678507 24.163801902803634 H 0.0 **** 0.52
9211 H 3.9985665172999774 1.5406916700503075 24.7227004572427 H 0.0 **** 0.52
9212 M 3.1403277146667534 1.399920987874225 24.803777996320363 M 0.0 **** -1.04
9213 O 16.957623050558276 8.42040511056493 38.096966571601776 O 0.0 **** 0.0
9214 H 16.749448631846175 8.29240913418593 37.171489174314836 H 0.0 **** 0.52
9215 H 17.299244199991822 9.313283737750893 38.14485111944925 H 0.0 **** 0.52
9216 M 16.97470665083256 8.518320174217427 37.984623700343384 M 0.0 **** -1.04
9217 O 38.44886437829314 2.9514142586137413 35.186049527815975 O 0.0 **** 0.0
9218 H 38.09233367056184 2.102554559525392 35.447874276320775 H 0.0 **** 0.52
9219 H 38.33353251330117 3.508018361193498 35.9561921445742 H 0.0 **** 0.52
9220 M 38.38846007955175 2.9140019164981688 35.31815525493254 M 0.0 **** -1.04
9221 O 31.3329723722458 6.879334816183867 10.869142910616802 O 0.0 **** 0.0
9222 H 31.721999920481604 6.191963461602961 10.32839676254359 H 0.0 **** 0.52
9223 H 31.76497909874607 7.683831649466819 10.5821175957716 H 0.0 **** 0.52
9224 M 31.438075025814552 6.894328206450776 10.763177240600015 M 0.0 **** -1.04
9225 O 6.26141616763475 30.267287333292966 23.138742348444676 O 0.0 **** 0.0
9226 H 6.3229738103083655 31.0506942146457 23.685288426904222 H 0.0 **** 0.52
9227 H 6.6011195539947165 29.56257381038772 23.690294868391685 H 0.0 **** 0.52
9228 M 6.312782242244397 30.27736087122457 23.27931299673854 M 0.0 **** -1.04
9229 O 43.05740041084636 41.8805545965414 43.01608368396529 O 0.0 **** 0.0
9230 H 42.427048507046365 42.60077154471173 43.029199210219666 H 0.0 **** 0.52
9231 H 42.98139949630541 41.4793147493141 43.88179702832412 H 0.0 **** 0.52
9232 M 42.966977992561944 41.92138703712862 43.128584766699255 M 0.0 **** -1.04
9233 O 39.04461243721545 17.07822541542447 13.37405027368068 O 0.0 **** 0.0
9234 H 38.38642007072702 17.667120460350528 13.004979481951558 H 0.0 **** 0.52
9235 H 38.57255088691396 16.261150917954392 13.534597359286863 H 0.0 **** 0.52
9236 M 38.899925548984925 17.04901534931958 13.347356938308224 M 0.0 **** -1.04
9237 O 35.98079409343659 22.751381704602796 26.747364951058998 O 0.0 **** 0.0
9238 H 36.753121074502204 23.207924777343106 26.413736796659194 H 0.0 **** 0.52
9239 H 35.91512355798283 23.027373901832025 27.661555470734797 H 0.0 **** 0.52
9240 M 36.07125527303081 22.845155464575594 26.82168417997029 M 0.0 **** -1.04
9241 O 34.974199183749946 45.798939166150845 20.73523388848257 O 0.0 **** 0.0
9242 H 35.13340829179917 44.85522575868949 20.752176362520174 H 0.0 **** 0.52
9243 H 35.522125282582415 46.14742164266589 21.438488656349676 H 0.0 **** 0.52
9244 M 35.06472165091269 45.72274243607472 20.82742814775338 M 0.0 **** -1.04
9245 O 18.361366508705146 33.09982600986638 2.2275188054044355 O 0.0 **** 0.0
9246 H 18.40322822469122 32.58399062811554 3.032745535915511 H 0.0 **** 0.52
9247 H 19.21490476581863 33.52965606341452 2.173214421903959 H 0.0 **** 0.52
9248 M 18.475989115427097 33.088815999538596 2.3236460925961735 M 0.0 **** -1.04
9249 O 13.349857843900889 47.46482110844424 43.83294266927917 O 0.0 **** 0.0
9250 H 12.545463197370688 47.007500933846444 44.07796380913021 H 0.0 **** 0.52
9251 H 14.021582235079267 46.782918990664676 43.82790958540409 H 0.0 **** 0.52
9252 M 13.332875147758031 47.31898614359412 43.863664150833536 M 0.0 **** -1.04
9253 O 45.341573682664446 3.0396576603339622 38.595284396291156 O 0.0 **** 0.0
9254 H 44.81244271970502 2.242847929902946 38.55864600046201 H 0.0 **** 0.52
9255 H 45.78177412250532 3.0746837131389717 37.74603454870172 H 0.0 **** 0.52
9256 M 45.330188727212 2.9421397380664396 38.48187972297049 M 0.0 **** -1.04
9257 O 0.8213789841820116 45.839009343581175 1.3336011753853185 O 0.0 **** 0.0
9258 H 1.4145608484333678 45.40422789870165 1.946242998874375 H 0.0 **** 0.52
9259 H 1.3393560738014614 46.554557315344965 0.9649282909263022 H 0.0 **** 0.52
9260 M 0.9636214429020526 45.874951096631584 1.3648318070463574 M 0.0 **** -1.04
9261 O 4.862004090137465 26.550204833795753 11.290479054447015 O 0.0 **** 0.0
9262 H 4.599730358940086 27.405998743147908 11.629680558496192 H 0.0 **** 0.52
9263 H 4.341074885980057 26.437255284396393 10.495429144506721 H 0.0 **** 0.52
9264 M 4.761744406991616 26.645299249758093 11.232125186586627 M 0.0 **** -1.04
9265 O 9.562175999618532 2.4563521830642947 15.648912722642965 O 0.0 **** 0.0
9266 H 9.121222967523309 1.6296343031948655 15.453138510735231 H 0.0 **** 0.52
9267 H 9.570800856304185 2.5032267815516134 16.60492368466938 H 0.0 **** 0.52
9268 M 9.506832183757991 2.3565229985701808 15.746233006978915 M 0.0 **** -1.04
9269 O 37.85153025931402 47.96781337779611 31.484190822441015 O 0.0 **** 0.0
9270 H 37.76135546287107 47.97144249501094 32.43712503035697 H 0.0 **** 0.52
9271 H 38.773627938824966 48.1729173582613 31.329603103224528 H 0.0 **** 0.52
9272 M 37.958027496429246 47.99453429963664 31.586388706655082 M 0.0 **** -1.04
9273 O 9.791405706445964 13.745471831563936 23.647292693237702 O 0.0 **** 0.0
9274 H 10.526679000678477 13.438026242812738 24.17746158375016 H 0.0 **** 0.52
9275 H 9.227398612764766 14.210032639130135 24.265603100909317 H 0.0 **** 0.52
9276 M 9.813330692634615 13.765584515977826 23.794312980342156 M 0.0 **** -1.04
9277 O 47.328292137386 7.243936308171833 5.061980109813945 O 0.0 **** 0.0
9278 H 46.49669630047583 6.836370595502046 5.303987699230113 H 0.0 **** 0.52
9279 H 47.162496757104265 7.637075054661693 4.205135585737963 H 0.0 **** 0.52
9280 M 47.20061303275389 7.242089547547636 4.983273063289822 M 0.0 **** -1.04
9281 O 31.283107511631876 47.260307294120274 47.1459978105119 O 0.0 **** 0.0
9282 H 31.906663749895632 47.205835836100185 47.870179567062436 H 0.0 **** 0.52
9283 H 31.754677902055665 47.72999571915439 46.45807093836005 H 0.0 **** 0.52
9284 M 31.423297908507692 47.31346064864002 47.15063855970541 M 0.0 **** -1.04
9285 O 5.3430158409490796 11.022985720324765 29.8219825171052 O 0.0 **** 0.0
9286 H 5.283337050181836 11.657941131065815 29.10819047222202 H 0.0 **** 0.52
9287 H 4.650546239495468 11.28035515149381 30.43064944335279 H 0.0 **** 0.52
9288 M 5.246731260947815 11.137214637265973 29.8085252639893 M 0.0 **** -1.04
9289 O 3.064848268033359 48.77187569116934 33.12128337728209 O 0.0 **** 0.0
9290 H 3.605123005072832 49.375428941697365 33.63123881064491 H 0.0 **** 0.52
9291 H 3.548601503341742 47.94604050624076 33.135711536933684 H 0.0 **** 0.52
9292 M 3.1959361910613837 48.743421420213934 33.18841117655037 M 0.0 **** -1.04
9293 O 38.757706930691796 9.409393321799445 47.39426698350846 O 0.0 **** 0.0
9294 H 38.349764866993446 10.099882548652904 47.91679561429074 H 0.0 **** 0.52
9295 H 38.57991679368426 8.60403029855848 47.88007587757007 H 0.0 **** 0.52
9296 M 38.68272533770885 9.394687758246192 47.52334670351641 M 0.0 **** -1.04
9297 O 30.354584641322532 35.73205218007367 11.974184257868899 O 0.0 **** 0.0
9298 H 29.42515723467457 35.53526261165596 11.85727755953362 H 0.0 **** 0.52
9299 H 30.746860746005535 34.896383013593734 12.227174876280916 H 0.0 **** 0.52
9300 M 30.285822824342787 35.59988404582681 11.991605197693554 M 0.0 **** -1.04
9301 O 30.693521098625435 3.414346622816119 44.51790817907624 O 0.0 **** 0.0
9302 H 31.08479982348352 3.921648206413252 45.229086191244335 H 0.0 **** 0.52
9303 H 31.016293516254603 2.523373004409649 44.652865720790636 H 0.0 **** 0.52
9304 M 30.78492845308877 3.3652319801198587 44.626223480935366 M 0.0 **** -1.04
9305 O 5.082867562953787 12.248521843678695 2.347453926472923 O 0.0 **** 0.0
9306 H 5.251894858866557 11.480189133420968 1.802180947603702 H 0.0 **** 0.52
9307 H 5.885706704051017 12.363296759303937 2.8558863816987525 H 0.0 **** 0.52
9308 M 5.207277782978402 12.16485817962541 2.3427379068994867 M 0.0 **** -1.04
9309 O 38.97282597850118 6.0656705384922205 32.74378688434464 O 0.0 **** 0.0
9310 H 39.49969342762056 6.016896123990847 33.541445852875384 H 0.0 **** 0.52
9311 H 38.58899838514157 5.193206227840513 32.655973065563906 H 0.0 **** 0.52
9312 M 38.9911365442298 5.947739844323195 32.834655623091855 M 0.0 **** -1.04
9313 O 29.648371197892146 28.493109910885163 47.577338418718696 O 0.0 **** 0.0
9314 H 29.210080244176044 29.090135150259975 48.18371382617891 H 0.0 **** 0.52
9315 H 28.945284041349893 28.156228305214928 47.021992466044296 H 0.0 **** 0.52
9316 M 29.50226044904199 28.526411511582584 47.58387080223831 M 0.0 **** -1.04
9317 O 35.73299834525642 16.26589787306723 44.94581209867458 O 0.0 **** 0.0
9318 H 34.93227573343046 16.32662478063429 44.42486712130236 H 0.0 **** 0.52
9319 H 36.41500027900034 16.042404018082365 44.312446881872326 H 0.0 **** 0.52
9320 M 35.71780037371501 16.24506132715399 44.79804645630324 M 0.0 **** -1.04
9321 O 8.956091511902718 44.29829305075315 28.94293752200305 O 0.0 **** 0.0
9322 H 9.70167660580563 43.805884748729035 28.599619172548415 H 0.0 **** 0.52
9323 H 8.480709856595285 44.58792443271305 28.16425044602714 H 0.0 **** 0.52
9324 M 8.990681432993936 44.27233492492043 28.799306446820225 M 0.0 **** -1.04
9325 O 45.46200786899458 36.83344631373491 46.16968176589181 O 0.0 **** 0.0
9326 H 44.8610129120949 36.646344517042614 46.89081044355628 H 0.0 **** 0.52
9327 H 46.17987081205656 37.31946236501708 46.57550150756161 H 0.0 **** 0.52
9328 M 45.476967625129454 36.87171136488508 46.313945207767674 M 0.0 **** -1.04
9329 O 31.963036818039683 24.35133043774334 3.1211480636908036 O 0.0 **** 0.0
9330 H 31.42540106738518 24.224116901157792 3.9028094453474296 H 0.0 **** 0.52
9331 H 32.775489450146296 24.737026617604894 3.4488489804685756 H 0.0 **** 0.52
9332 M 31.998216558910684 24.384419444764408 3.263161117339422 M 0.0 **** -1.04
9333 O 22.66733169109018 15.195576483803377 34.200798120334284 O 0.0 **** 0.0
9334 H 22.478930083034005 14.42493728957651 33.66521495910398 H 0.0 **** 0.52
9335 H 21.8669937257491 15.718907929652561 34.158233256228584 H 0.0 **** 0.52
9336 M 22.540761244476453 15.163917557530128 34.126787896815955 M 0.0 **** -1.04
9337 O 28.586800818982212 39.13901391296244 18.191819841036036 O 0.0 **** 0.0
9338 H 28.541246366112965 40.09100092511087 18.280549129181537 H 0.0 **** 0.52
9339 H 28.828099605112563 38.82793739943655 19.064307433252637 H 0.0 **** 0.52
9340 M 28.611858807270675 39.22105832143233 18.314867057484715 M 0.0 **** -1.04
9341 O 17.964348302070142 45.189994089983955 22.403854553103038 O 0.0 **** 0.0
9342 H 17.521485778916865 45.059492192244825 23.24234839656397 H 0.0 **** 0.52
9343 H 18.89437691880161 45.08575031731452 22.604874103369347 H 0.0 **** 0.52
9344 M 18.02671230166457 45.1599435201157 22.536926284643524 M 0.0 **** -1.04
9345 O 34.74309842337322 21.321715852300066 49.865354966403146 O 0.0 **** 0.0
9346 H 34.245384830479836 22.139340118741398 49.86454456128515 H 0.0 **** 0.52
9347 H 34.60032593793759 20.954711984300797 50.73779559116056 H 0.0 **** 0.52
9348 M 34.661108506475664 21.37940117855773 49.97693391000667 M 0.0 **** -1.04
9349 O 0.9435032646324188 47.80765058621065 14.232621942878794 O 0.0 **** 0.0
9350 H 1.084004958809487 48.69583534693075 14.56067026246454 H 0.0 **** 0.52
9351 H 0.6587500337578263 47.928620180205456 13.32680145843483 H 0.0 **** 0.52
9352 M 0.9250377471180045 47.936835566931336 14.158659972596098 M 0.0 **** -1.04
9353 O 49.47849616920356 38.03831817084383 18.935710064722322 O 0.0 **** 0.0
9354 H 50.1050323353888 37.51190372716092 18.439153604619413 H 0.0 **** 0.52
9355 H 50.00695118327955 38.732942460329866 19.32872507456162 H 0.0 **** 0.52
9356 M 49.62634886129254 38.05985186560398 18.922455658774926 M 0.0 **** -1.04
9357 O 39.04865110859648 45.943412236511676 46.046027006510876 O 0.0 **** 0.0
9358 H 39.98040706870135 45.72505335609209 46.065474721550466 H 0.0 **** 0.52
9359 H 38.6478606806567 45.23976765787961 45.53565421775853 H 0.0 **** 0.52
9360 M 39.116621046205005 45.82538391827877 45.983183064673874 M 0.0 **** -1.04
9361 O 1.1895929239511285 42.834760619234864 17.567544487685808 O 0.0 **** 0.0
9362 H 1.5815263289646828 41.99364318031137 17.3327296574137 H 0.0 **** 0.52
9363 H 0.516882391785538 42.61452685070186 18.211894379204917 H 0.0 **** 0.52
9364 M 1.1536501722285397 42.69889391309025 17.619970421068395 M 0.0 **** -1.04
9365 O 32.0363150268896 45.741536334384534 41.69480168686444 O 0.0 **** 0.0
9366 H 32.33144356320783 44.83883951151215 41.575359670136365 H 0.0 **** 0.52
9367 H 32.771519760924576 46.27607429641759 41.39484992328668 H 0.0 **** 0.52
9368 M 32.1682102708964 45.69440682214104 41.64111412982293 M 0.0 **** -1.04
9369 O 41.727695075622826 40.053250586873105 30.064025566043583 O 0.0 **** 0.0
9370 H 42.0357399849322 39.32196295150209 30.599334807309077 H 0.0 **** 0.52
9371 H 40.91982400666329 39.733217144830505 29.662588516082124 H 0.0 **** 0.52
9372 M 41.663711186533966 39.91866774056562 30.081163271690627 M 0.0 **** -1.04
9373 O 11.58144194380926 18.7982264171817 18.2607155142758 O 0.0 **** 0.0
9374 H 11.861528845028019 17.887037757307397 18.174032123966114 H 0.0 **** 0.52
9375 H 10.790065114528275 18.75600781907343 18.797529774473276 H 0.0 **** 0.52
9376 M 11.515990981421517 18.67617870025977 18.318337706577665 M 0.0 **** -1.04
9377 O 17.48052484473788 29.098762718139973 18.207419657653492 O 0.0 **** 0.0
9378 H 17.773355380152974 28.301917064402726 17.765247283313176 H 0.0 **** 0.52
9379 H 17.120960211690527 29.643447092854252 17.507232542906422 H 0.0 **** 0.52
9380 M 17.47198256154922 29.066482763293855 18.061183335838212 M 0.0 **** -1.04
9381 O 29.12104579207072 12.988320808669485 48.68475569379297 O 0.0 **** 0.0
9382 H 28.618187801238307 12.202680690484469 48.89953776179385 H 0.0 **** 0.52
9383 H 28.46716854840434 13.614012637469914 48.37301384175648 H 0.0 **** 0.52
9384 M 28.972969559778008 12.967845477579518 48.67234317814392 M 0.0 **** -1.04
9385 O 7.481141937561452 8.82266395336842 11.203142956516015 O 0.0 **** 0.0
9386 H 6.885275620113516 8.758889955687566 10.4567484867052 H 0.0 **** 0.52
9387 H 7.019966896201133 9.37815061822024 11.831617502372442 H 0.0 **** 0.52
9388 M 7.345827513885732 8.885609275954765 11.188048105910816 M 0.0 **** -1.04
9389 O 30.36870218961049 15.608035922430275 27.908269308454354 O 0.0 **** 0.0
9390 H 29.62026639807911 15.347524171881572 27.37142095728809 H 0.0 **** 0.52
9391 H 31.11233418698449 15.142688951967505 27.525265619931943 H 0.0 **** 0.52
9392 M 30.368087463674925 15.515116572139947 27.790517089376966 M 0.0 **** -1.04
9393 O 27.357925941578248 44.364495117400516 8.928248842446179 O 0.0 **** 0.0
9394 H 28.014916702178176 45.011363384844834 9.185451571403838 H 0.0 **** 0.52
9395 H 27.191434154701764 44.5462293625516 8.0033268201003 H 0.0 **** 0.52
9396 M 27.420716134865014 44.47056676804505 8.84277263267096 M 0.0 **** -1.04
9397 O 3.837877227575359 36.68900676992688 22.451213055555066 O 0.0 **** 0.0
9398 H 4.212430885313308 35.80874585127165 22.484057242047236 H 0.0 **** 0.52
9399 H 4.5262547842173575 37.2558611872899 22.799121977161807 H 0.0 **** 0.52
9400 M 3.973945259705594 36.64888664618002 22.499953643936472 M 0.0 **** -1.04
9401 O 41.489026987177695 24.050647217337307 17.896781986539565 O 0.0 **** 0.0
9402 H 41.99201155279065 24.759973340941546 17.496669037370737 H 0.0 **** 0.52
9403 H 40.620359053764986 24.11931314028649 17.50063935862522 H 0.0 **** 0.52
9404 M 41.44221490423261 24.150240245556034 17.794851333870398 M 0.0 **** -1.04
9405 O 23.37920762538505 27.345487732427 11.955192864629517 O 0.0 **** 0.0
9406 H 24.093519643337967 26.73374792851041 11.776977212339423 H 0.0 **** 0.52
9407 H 23.170125383682684 27.725455360767754 11.101882501453327 H 0.0 **** 0.52
9408 M 23.44388316056567 27.315817874628994 11.823144881576585 M 0.0 **** -1.04
9409 O 41.48072357969349 27.957021813512327 2.5958608694163416 O 0.0 **** 0.0
9410 H 41.68392549567249 28.809727989903315 2.9803480703161753 H 0.0 **** 0.52
9411 H 40.88928503934455 27.54467505760016 3.225464148210449 H 0.0 **** 0.52
9412 M 41.43102411215436 28.01339289841814 2.725676732194586 M 0.0 **** -1.04
9413 O 44.48710685177358 26.161764701097574 25.022718257294056 O 0.0 **** 0.0
9414 H 44.75372282623708 26.49525926647678 24.16602295704695 H 0.0 **** 0.52
9415 H 45.02849593853542 25.383800622107323 25.156504948145965 H 0.0 **** 0.52
9416 M 44.59054163462372 26.104867575105512 24.93017718016292 M 0.0 **** -1.04
9417 O 8.590367057043835 9.496297907276878 38.97475794330874 O 0.0 **** 0.0
9418 H 8.081709618930176 8.795217494003259 39.38216652373521 H 0.0 **** 0.52
9419 H 8.812498591903086 9.158584944479006 38.10709624092023 H 0.0 **** 0.52
9420 M 8.553688082818255 9.36331963054026 38.91583941241286 M 0.0 **** -1.04
9421 O 30.16942618121839 37.77248055409605 43.304016458365254 O 0.0 **** 0.0
9422 H 30.882101914260655 37.157371974477 43.47711692224801 H 0.0 **** 0.52
9423 H 29.67754237047535 37.373986878751204 42.58604627026845 H 0.0 **** 0.52
9424 M 30.19768996670324 37.64272707924829 43.23426687450276 M 0.0 **** -1.04
9425 O 19.327594070105498 35.98826300843841 39.184715212856524 O 0.0 **** 0.0
9426 H 19.708802736929787 36.50200579815163 39.896738896424225 H 0.0 **** 0.52
9427 H 18.50500437320998 36.43344803232379 38.981280329677375 H 0.0 **** 0.52
9428 M 19.27109195646575 36.11101815033809 39.24982070737443 M 0.0 **** -1.04
9429 O 5.350158066149838 6.990382619925206 33.953474085745775 O 0.0 **** 0.0
9430 H 6.206524341235777 7.288934397473315 34.25963293970866 H 0.0 **** 0.52
9431 H 4.924890860383499 7.781103286689862 33.621606088282135 H 0.0 **** 0.52
9432 M 5.40534398902799 7.129823612200294 33.95018371184004 M 0.0 **** -1.04
9433 O 45.99090012745475 35.38043879674909 9.183569384089754 O 0.0 **** 0.0
9434 H 46.57297340126265 35.10785782450543 8.474261037832658 H 0.0 **** 0.52
9435 H 46.2859121931244 34.87761456907531 9.942755964729395 H 0.0 **** 0.52
9436 M 46.10317754818334 35.28117731071025 9.189954547587316 M 0.0 **** -1.04
9437 O 22.527467503715144 19.503740720035914 44.72407100207579 O 0.0 **** 0.0
9438 H 22.100699170079874 19.056768909486642 45.4550384129186 H 0.0 **** 0.52
9439 H 23.16781132347818 20.082650091148935 45.13765556817633 H 0.0 **** 0.52
9440 M 22.55480743764023 19.520629743302308 44.870588188986055 M 0.0 **** -1.04
9441 O 44.657758245501974 37.217267526807106 6.284420771476571 O 0.0 **** 0.0
9442 H 43.80581675470934 36.85979892406623 6.534703256336858 H 0.0 **** 0.52
9443 H 45.23069321390567 36.45278400299326 6.22492718121904 H 0.0 **** 0.52
9444 M 44.62204191882563 37.07364373223148 6.308843659213914 M 0.0 **** -1.04
9445 O 13.194852154481671 25.933861712780804 26.849971127628557 O 0.0 **** 0.0
9446 H 13.256406119133882 26.01755647718936 25.89842732626134 H 0.0 **** 0.52
9447 H 12.693236632166055 25.13044172433866 26.988271302020486 H 0.0 **** 0.52
9448 M 13.138518703889515 25.84172808539652 26.745865650436436 M 0.0 **** -1.04
9449 O 21.99310200907431 42.496185294841695 37.15230246841658 O 0.0 **** 0.0
9450 H 21.777256464493895 43.38706758291525 37.42792502295467 H 0.0 **** 0.52
9451 H 22.904544733497932 42.37660392692372 37.419136309348715 H 0.0 **** 0.52
9452 M 22.082146686854138 42.59492230014507 37.22174321859824 M 0.0 **** -1.04
9453 O 5.968780839002626 4.561283846673142 30.15343735165265 O 0.0 **** 0.0
9454 H 5.727810410383485 3.810793368938235 29.610367271683046 H 0.0 **** 0.52
9455 H 6.198941200416864 4.180276899193416 31.000837941918967 H 0.0 **** 0.52
9456 M 5.967397219217263 4.416438051286697 30.1923948171779 M 0.0 **** -1.04
9457 O 0.42830692727577213 5.989776313426063 12.394786624811395 O 0.0 **** 0.0
9458 H 0.12493065298991934 6.251767662861411 13.264010678796645 H 0.0 **** 0.52
9459 H 0.6173924148973273 6.814822116010546 11.947825021088299 H 0.0 **** 0.52
9460 M 0.4136758291852251 6.128930806099774 12.448841408904855 M 0.0 **** -1.04
9461 O 37.16468897014337 20.62865344735047 48.82714212176892 O 0.0 **** 0.0
9462 H 36.26239402958085 20.682000387986513 48.51210648598316 H 0.0 **** 0.52
9463 H 37.30030370137726 19.699017212569018 49.01048796217065 H 0.0 **** 0.52
9464 M 37.06654424297853 20.516477514989433 48.81028402179752 M 0.0 **** -1.04
9465 O 10.134736258007699 8.227581299129843 19.097512566948495 O 0.0 **** 0.0
9466 H 9.344446419437489 7.697264626132445 19.199658503440844 H 0.0 **** 0.52
9467 H 10.587486445194614 8.147767352716755 19.937080969381825 H 0.0 **** 0.52
9468 M 10.091527240100518 8.149477085555858 19.218064161290897 M 0.0 **** -1.04
9469 O 23.33220882098696 13.73652286325401 19.63404523881335 O 0.0 **** 0.0
9470 H 22.427124046926288 13.47825602847388 19.808252503307088 H 0.0 **** 0.52
9471 H 23.835178634679757 12.927734314414643 19.72950026721074 H 0.0 **** 0.52
9472 M 23.280732450674975 13.59992593690432 19.66856520650346 M 0.0 **** -1.04
9473 O 21.213080617694114 26.711781519282976 17.344311523533566 O 0.0 **** 0.0
9474 H 20.29341451646693 26.791403648343326 17.091124858168488 H 0.0 **** 0.52
9475 H 21.24857319315989 25.913795155537752 17.871745798824502 H 0.0 **** 0.52
9476 M 21.099895000700318 26.619821837682665 17.379418537472127 M 0.0 **** -1.04
9477 O 14.602001147367556 19.922207777344504 8.90634216465196 O 0.0 **** 0.0
9478 H 14.72524848381826 19.05111473448227 8.529199442586759 H 0.0 **** 0.52
9479 H 14.15055168834778 20.41784179858105 8.223137781785042 H 0.0 **** 0.52
9480 M 14.559987298718621 19.874143866641905 8.770604720880264 M 0.0 **** -1.04
9481 O 1.6854275553442548 26.78827062139068 46.19736576099244 O 0.0 **** 0.0
9482 H 2.472831867944997 27.272054202953846 46.446720275351886 H 0.0 **** 0.52
9483 H 1.7029450471450147 26.77817931150146 45.240381515618196 H 0.0 **** 0.52
9484 M 1.7884678639089415 26.848909478679044 46.10678026509133 M 0.0 **** -1.04
9485 O 26.881570932948787 10.69214813248417 19.804020563074886 O 0.0 **** 0.0
9486 H 27.0192437769113 11.010442952197032 18.911852210325478 H 0.0 **** 0.52
9487 H 26.577675341953444 9.791262381074716 19.693202764277174 H 0.0 **** 0.52
9488 M 26.86029216883001 10.617569723597164 19.675625354058084 M 0.0 **** -1.04
9489 O 14.61630677098232 14.45591103163388 35.581796875504864 O 0.0 **** 0.0
9490 H 14.879674924228638 14.107268059768398 34.73014338990566 H 0.0 **** 0.52
9491 H 14.240235873057657 13.705764859467566 36.04231963110567 H 0.0 **** 0.52
9492 M 14.601879166734449 14.315252625562138 35.53172730938935 M 0.0 **** -1.04
9493 O 36.9528575395739 4.300619068170748 31.88789924804647 O 0.0 **** 0.0
9494 H 36.55548222923476 4.542398002175253 32.72447832305656 H 0.0 **** 0.52
9495 H 36.36544287363359 4.668787522223889 31.227880906272876 H 0.0 **** 0.52
9496 M 36.82679210277594 4.3786996581208815 31.910501762595956 M 0.0 **** -1.04
9497 O 15.290557040188283 21.420822451371944 6.5978186238878775 O 0.0 **** 0.0
9498 H 16.046719153875983 21.962741612370092 6.372494562285389 H 0.0 **** 0.52
9499 H 14.568020380279208 21.795714373049424 6.094206782915061 H 0.0 **** 0.52
9500 M 15.294861639645347 21.53818573419842 6.5045059195935435 M 0.0 **** -1.04
9501 O 19.338482178086846 26.79865658932988 48.86339505149752 O 0.0 **** 0.0
9502 H 19.674415635262232 27.67339513302727 49.05886926572143 H 0.0 **** 0.52
9503 H 18.830193431477724 26.558145599784964 49.63800819495803 H 0.0 **** 0.52
9504 M 19.316418476967847 26.879845602977923 48.987578309088036 M 0.0 **** -1.04
9505 O 29.22337690579038 31.663657480925497 23.654509967087805 O 0.0 **** 0.0
9506 H 28.702237133034632 32.19568387426968 24.255833431502396 H 0.0 **** 0.52
9507 H 28.62288087504924 31.451235158198614 22.940009663599582 H 0.0 **** 0.52
9508 M 29.079793349900108 31.70457066055755 23.640021710143515 M 0.0 **** -1.04
9509 O 14.460477792876251 18.20129644773838 0.6025673492169662 O 0.0 **** 0.0
9510 H 14.647648786950906 18.891209869914295 1.2391333385508094 H 0.0 **** 0.52
9511 H 15.295726254465777 17.748234445785563 0.48713787689818366 H 0.0 **** 0.52
9512 M 14.59136030403063 18.231616570934463 0.6692792354389724 M 0.0 **** -1.04
9513 O 11.063797252242226 17.90304103900263 34.659052364259296 O 0.0 **** 0.0
9514 H 11.757711634748102 17.826579320491174 35.313930122255485 H 0.0 **** 0.52
9515 H 11.341822500561145 17.3275635814624 33.946482393008324 H 0.0 **** 0.52
9516 M 11.188217092591907 17.819584548404695 34.65166683039776 M 0.0 **** -1.04
9517 O 38.65887714577369 33.5724411806308 46.23621232316122 O 0.0 **** 0.0
9518 H 38.17688349850917 34.387613334741886 46.096911067970744 H 0.0 **** 0.52
9519 H 39.46338323448148 33.84204094555064 46.679287065814584 H 0.0 **** 0.52
9520 M 38.700163454297694 33.711305751640154 46.27509912837645 M 0.0 **** -1.04
9521 O 8.827794343577345 11.171515478148805 45.43276346276048 O 0.0 **** 0.0
9522 H 8.712202190206948 10.224737356980043 45.51325666008862 H 0.0 **** 0.52
9523 H 9.750251247518129 11.319251025812946 45.64126916551973 H 0.0 **** 0.52
9524 M 8.931083128954045 11.069227758056186 45.469758972848226 M 0.0 **** -1.04
9525 O 31.23964008266094 23.618427996808478 17.51406910171455 O 0.0 **** 0.0
9526 H 31.68853118266603 24.072833529846097 18.22697978340344 H 0.0 **** 0.52
9527 H 31.905398915041175 23.523982132162136 16.83284000033968 H 0.0 **** 0.52
9528 M 31.38232847737708 23.664507262207035 17.518124438527096 M 0.0 **** -1.04
9529 O 17.12804183872656 45.5357103872062 28.715041239795752 O 0.0 **** 0.0
9530 H 17.70154054730918 45.804456333934446 29.43274868884552 H 0.0 **** 0.52
9531 H 16.428797358701672 45.03882947167324 29.139772124220404 H 0.0 **** 0.52
9532 M 17.111944345326336 45.5065065795419 28.86128829378016 M 0.0 **** -1.04
9533 O 6.988303413702418 33.29192209040345 16.878005993586743 O 0.0 **** 0.0
9534 H 6.587350726684846 33.90477733826059 17.49434445144742 H 0.0 **** 0.52
9535 H 6.488817224242432 33.403752117744105 16.06915783454733 H 0.0 **** 0.52
9536 M 6.8730360701587685 33.384690710664515 16.8533622740168 M 0.0 **** -1.04
9537 O 6.208764181115915 3.1387103060035315 15.16220412020457 O 0.0 **** 0.0
9538 H 6.260233111771386 3.841508383566371 14.514396474432328 H 0.0 **** 0.52
9539 H 6.973517806836894 2.5913973822376946 14.983801846356062 H 0.0 **** 0.52
9540 M 6.3132506062907945 3.158614234289722 15.056439020200136 M 0.0 **** -1.04
9541 O 1.4459438484258809 18.517575476719742 25.353087407858595 O 0.0 **** 0.0
9542 H 1.9170544727009582 18.041351440660705 26.036823795319037 H 0.0 **** 0.52
9543 H 2.08736137249885 18.62642094318869 24.650973128102848 H 0.0 **** 0.52
9544 M 1.5883616694397078 18.47054634856309 25.35073546918713 M 0.0 **** -1.04
9545 O 9.319111359272 39.003535369682204 6.7866664245617905 O 0.0 **** 0.0
9546 H 9.983739680937056 39.644857011854896 6.535261565888495 H 0.0 **** 0.52
9547 H 9.819292453712393 38.24129370736095 7.078271859552427 H 0.0 **** 0.52
9548 M 9.468220854881771 38.988056185845146 6.7918128714658375 M 0.0 **** -1.04
9549 O 39.055477170939135 5.830748174142692 5.566994771931164 O 0.0 **** 0.0
9550 H 38.10131835632082 5.89714615459066 5.529585156963307 H 0.0 **** 0.52
9551 H 39.27066964386012 5.121887648857756 4.96082735802856 H 0.0 **** 0.52
9552 M 38.96088056467353 5.7485049505769386 5.484608381061349 M 0.0 **** -1.04
9553 O 41.267650064615225 11.133243166199065 9.153520640654271 O 0.0 **** 0.0
9554 H 40.80270249632309 10.377066465223844 8.795399752228661 H 0.0 **** 0.52
9555 H 40.726805440251155 11.421326100262212 9.888860286019144 H 0.0 **** 0.52
9556 M 41.13889628114883 11.07332115777667 9.201809087426719 M 0.0 **** -1.04
9557 O 25.06559976841771 32.866499131194985 2.575106005936226 O 0.0 **** 0.0
9558 H 25.769228311519907 33.27424725601227 3.079959245421335 H 0.0 **** 0.52
9559 H 25.24374517981141 33.117806738981045 1.668829774060998 H 0.0 **** 0.52
9560 M 25.178478003573222 32.95086659522808 2.523719023004535 M 0.0 **** -1.04
9561 O 14.533772169482543 12.29097875234445 29.80253832888417 O 0.0 **** 0.0
9562 H 14.438417082380218 13.03167841668313 30.40128764898495 H 0.0 **** 0.52
9563 H 14.04724605447862 11.58041626532195 30.220415038419954 H 0.0 **** 0.52
9564 M 14.459283726754188 12.294837078136792 29.93267916192277 M 0.0 **** -1.04
9565 O 13.838994202518066 41.2237979466788 38.6499456183946 O 0.0 **** 0.0
9566 H 14.083570884795805 40.55536232560372 38.00994187210476 H 0.0 **** 0.52
9567 H 14.57390742720554 41.837092219213645 38.64918311628527 H 0.0 **** 0.52
9568 M 13.964380810654951 41.21673889635059 38.56791923240573 M 0.0 **** -1.04
9569 O 38.15841178744316 7.15630649894124 49.06290943567023 O 0.0 **** 0.0
9570 H 38.978019464239935 6.689241575094495 49.22515106146156 H 0.0 **** 0.52
9571 H 37.588450308814416 6.505607100238118 48.65307754045422 H 0.0 **** 0.52
9572 M 38.19036976423659 7.013218913882978 49.03121518351815 M 0.0 **** -1.04
9573 O 23.394483726231723 23.35733281699217 22.090060207781814 O 0.0 **** 0.0
9574 H 23.534844130186965 22.53261832151276 21.62489942362466 H 0.0 **** 0.52
9575 H 22.563302379923122 23.687053021459207 21.748518499563232 H 0.0 **** 0.52
9576 M 23.306050364627314 23.293967066927962 21.986792866113966 M 0.0 **** -1.04
9577 O 34.61481543988512 36.955010121325685 43.21264631440295 O 0.0 **** 0.0
9578 H 35.21505688188809 37.63601573326312 42.90905082029191 H 0.0 **** 0.52
9579 H 34.87633485317744 36.79111733325555 44.118723477979245 H 0.0 **** 0.52
9580 M 34.72513080961922 37.0212069602602 43.28977158702174 M 0.0 **** -1.04
9581 O 31.425302343333026 42.92129959854584 8.670169422093231 O 0.0 **** 0.0
9582 H 31.739003806892022 42.15137561072499 9.1445507400096 H 0.0 **** 0.52
9583 H 31.86164719743127 43.65950103305273 9.095480979442764 H 0.0 **** 0.52
9584 M 31.52131791035626 42.917238267618444 8.785342056418008 M 0.0 **** -1.04
9585 O 23.112937299505965 15.652815943772907 44.58118688561063 O 0.0 **** 0.0
9586 H 24.047764186326955 15.737751847446887 44.768573700109975 H 0.0 **** 0.52
9587 H 23.076920697402624 15.335146867141447 43.678957327215656 H 0.0 **** 0.52
9588 M 23.22799660907118 15.623023195180721 44.489678292010424 M 0.0 **** -1.04
9589 O 45.64234602628241 39.88988673205907 6.128347745823156 O 0.0 **** 0.0
9590 H 46.48748330077061 39.578109975516945 5.8046703401352815 H 0.0 **** 0.52
9591 H 45.271548324427684 39.13948174641761 6.592706501671259 H 0.0 **** 0.52
9592 M 45.70306765312843 39.7539141211509 6.1463571580564675 M 0.0 **** -1.04
9593 O 2.664575208371422 43.89679315222017 32.23354310208842 O 0.0 **** 0.0
9594 H 3.210284626761034 43.46939419534929 32.893665256801626 H 0.0 **** 0.52
9595 H 2.251755010573714 43.17495263065736 31.75946146471587 H 0.0 **** 0.52
9596 M 2.681586756313146 43.7496763919525 32.257358430890676 M 0.0 **** -1.04
9597 O 32.45642307170435 29.249980232050653 13.04448609154952 O 0.0 **** 0.0
9598 H 32.83519787018474 29.073528737012456 13.905660868079865 H 0.0 **** 0.52
9599 H 31.596917668971187 28.829448865948784 13.069611378118314 H 0.0 **** 0.52
9600 M 32.39488352975067 29.173559200206014 13.157943259158758 M 0.0 **** -1.04
9601 O 22.23029062766191 5.2396881298772415 5.08872896743766 O 0.0 **** 0.0
9602 H 22.053455467938253 5.4904759948713675 5.9954065475664144 H 0.0 **** 0.52
9603 H 21.846294016808066 4.367209383492095 5.001802512270666 H 0.0 **** 0.52
9604 M 22.158497150507937 5.16010312942698 5.193667683469793 M 0.0 **** -1.04
9605 O 10.381862907619801 45.51316030009881 3.7863657586654003 O 0.0 **** 0.0
9606 H 10.696374390924108 44.6258286245866 3.61329665468216 H 0.0 **** 0.52
9607 H 10.757280462311982 46.04236925000513 3.0826407228757646 H 0.0 **** 0.52
9608 M 10.470182343184614 45.467316242665305 3.674124401917766 M 0.0 **** -1.04
9609 O 26.069092489360607 2.473798534484473 21.939858262356875 O 0.0 **** 0.0
9610 H 26.477537657686312 2.1346961789946235 21.143359556498307 H 0.0 **** 0.52
9611 H 25.335731317526935 1.88109997417164 22.104535816582064 H 0.0 **** 0.52
9612 M 26.027498666145462 2.3545162833054434 21.858976825833995 M 0.0 **** -1.04
9613 O 1.5061321782496293 41.9064948362968 30.67302253620298 O 0.0 **** 0.0
9614 H 0.6010165546640351 42.00418356886839 30.968744645926883 H 0.0 **** 0.52
9615 H 1.8720710040769362 41.22795991720646 31.240392827149684 H 0.0 **** 0.52
9616 M 1.4371104937172348 41.83213913729385 30.78350893523511 M 0.0 **** -1.04
9617 O 5.46658726260654 44.57294946149114 30.431152794445705 O 0.0 **** 0.0
9618 H 5.087520212170041 44.97063969609676 29.647328982278687 H 0.0 **** 0.52
9619 H 4.747063822335091 44.55308878013945 31.062120620755035 H 0.0 **** 0.52
9620 M 5.3259533145318 44.62131632346338 30.41158494967735 M 0.0 **** -1.04
9621 O 34.54478144166855 38.76043614479124 32.656417278532224 O 0.0 **** 0.0
9622 H 34.50380467865374 38.253637144742214 31.845427110570682 H 0.0 **** 0.52
9623 H 35.28908976718756 38.39198537575959 33.13231467371758 H 0.0 **** 0.52
9624 M 34.63481747489534 38.6483930863385 32.613521593955056 M 0.0 **** -1.04
9625 O 41.54628236213559 30.754929300428042 6.547717692347803 O 0.0 **** 0.0
9626 H 42.461086444116624 30.73460934804131 6.266738426537643 H 0.0 **** 0.52
9627 H 41.546159548259574 30.313077933961846 7.396832780244658 H 0.0 **** 0.52
9628 M 41.663372027503804 30.69576536308327 6.620446170221555 M 0.0 **** -1.04
9629 O 40.10650876992167 18.785782723153893 15.255297710521702 O 0.0 **** 0.0
9630 H 40.05997853970363 19.650542740975105 14.847556578524262 H 0.0 **** 0.52
9631 H 39.61336218143799 18.2155203391811 14.66552074332273 H 0.0 **** 0.52
9632 M 40.03742316708933 18.823482021847475 15.127602447460376 M 0.0 **** -1.04
9633 O 29.83877103652597 42.34672634834558 41.416783511320794 O 0.0 **** 0.0
9634 H 29.107122793933737 42.771232070073786 40.96877115431141 H 0.0 **** 0.52
9635 H 30.188790007638467 41.730157561603626 40.77369874768281 H 0.0 **** 0.52
9636 M 29.789916961083964 42.322139725423675 41.27710942150449 M 0.0 **** -1.04
9637 O 40.354501821064616 0.05552724378787843 26.80733364549168 O 0.0 **** 0.0
9638 H 40.98563207950277 0.5199280695693886 27.357093007401257 H 0.0 **** 0.52
9639 H 40.700589528904885 -0.8346750629132416 26.744155827178144 H 0.0 **** 0.52
9640 M 40.479598673079956 0.0010188514747255795 26.869622282371033 M 0.0 **** -1.04
9641 O 7.127966856256307 2.6513253898184317 2.6288089945141166 O 0.0 **** 0.0
9642 H 6.874803961008915 2.2603384650674485 3.465030197472011 H 0.0 **** 0.52
9643 H 8.067279206767495 2.8142684465800443 2.714658688904734 H 0.0 **** 0.52
9644 M 7.2158026845132355 2.622132520840104 2.746845455339688 M 0.0 **** -1.04
9645 O 12.975822943037244 36.87096337695269 24.328676226263767 O 0.0 **** 0.0
9646 H 13.622472422455004 37.10660818018395 24.993916399392916 H 0.0 **** 0.52
9647 H 12.674700886534254 37.7095848196868 23.97900709214551 H 0.0 **** 0.52
9648 M 13.020054186616079 37.008482641918974 24.369073342455437 M 0.0 **** -1.04
9649 O 35.683731351373204 16.385126880065386 27.680720287784418 O 0.0 **** 0.0
9650 H 36.19359800082621 17.007626051307753 27.16229871660991 H 0.0 **** 0.52
9651 H 35.48690807674981 16.85310890567078 28.49218924603589 H 0.0 **** 0.52
9652 M 35.723805458538635 16.524721893886237 27.718233889867484 M 0.0 **** -1.04
9653 O 6.382941348523064 43.7532485169169 12.732760672334102 O 0.0 **** 0.0
9654 H 6.089739198343063 43.58829990474475 11.83662845445329 H 0.0 **** 0.52
9655 H 5.595306782887723 44.04213835038357 13.19363196694757 H 0.0 **** 0.52
9656 M 6.244580507494212 43.76911473975527 12.677041480185899 M 0.0 **** -1.04
9657 O 24.165150178610713 39.31275872653191 32.30199351124722 O 0.0 **** 0.0
9658 H 24.649139638695384 39.883853995017404 32.8985097076297 H 0.0 **** 0.52
9659 H 23.332215176490116 39.76303059898335 32.16162260605806 H 0.0 **** 0.52
9660 M 24.120480736755702 39.443506393652896 32.36038595505448 M 0.0 **** -1.04
9661 O 28.999051420309417 22.201223327988597 16.41846057731771 O 0.0 **** 0.0
9662 H 28.99460368498541 21.2521537676376 16.54286143215071 H 0.0 **** 0.52
9663 H 29.816097055329216 22.492493076374014 16.823217219226297 H 0.0 **** 0.52
9664 M 29.10307386509352 22.117016440437464 16.486199882452173 M 0.0 **** -1.04
9665 O 25.30518308242565 24.56034933074379 2.4273366705364423 O 0.0 **** 0.0
9666 H 24.434847949043867 24.456545637879316 2.8120061104244294 H 0.0 **** 0.52
9667 H 25.866978644565307 24.797349248477694 3.1652011773424267 H 0.0 **** 0.52
9668 M 25.26568601103409 24.57740047041998 2.571035247120388 M 0.0 **** -1.04
9669 O 36.70819255543717 3.6758422985546426 39.874220009750665 O 0.0 **** 0.0
9670 H 36.877415636777734 3.7028883013663774 40.81595291459193 H 0.0 **** 0.52
9671 H 36.101706938293404 2.9441163524626495 39.76028478171387 H 0.0 **** 0.52
9672 M 36.652217259698844 3.5856347491128346 39.98018861031101 M 0.0 **** -1.04
9673 O 24.815609910524756 19.746878941098743 3.589721897250889 O 0.0 **** 0.0
9674 H 24.649965561690962 19.690327870890926 4.5307814313801 H 0.0 **** 0.52
9675 H 25.759175577914277 19.89217127276424 3.5204326148568974 H 0.0 **** 0.52
9676 M 24.915193201572947 19.758238731478837 3.7013197243468965 M 0.0 **** -1.04
9677 O 12.20329958922565 34.99080319990199 48.77405716419176 O 0.0 **** 0.0
9678 H 12.549918516391493 35.628608440665786 49.39798761844587 H 0.0 **** 0.52
9679 H 11.885695954510581 35.51939570922817 48.04197299690761 H 0.0 **** 0.52
9680 M 12.207013769105245 35.140117550286064 48.7602127958708 M 0.0 **** -1.04
9681 O 35.12468876357032 27.37392006721184 23.997699901134073 O 0.0 **** 0.0
9682 H 35.213154299987735 28.034676606479394 23.310819251717422 H 0.0 **** 0.52
9683 H 36.02183837477689 27.20577291113787 24.28593039671465 H 0.0 **** 0.52
9684 M 35.25085995473938 27.43698004975691 23.94666747898494 M 0.0 **** -1.04
9685 O 10.063128873659622 23.02002863659815 15.186341366166426 O 0.0 **** 0.0
9686 H 9.926781127949596 23.039611801491674 16.133576168940678 H 0.0 **** 0.52
9687 H 10.599260502092847 22.241236263041596 15.037099864643116 H 0.0 **** 0.52
9688 M 10.11430610348215 22.922840047177562 15.288494556621423 M 0.0 **** -1.04
9689 O 0.14194854484350475 49.42133416788674 31.70063491186695 O 0.0 **** 0.0
9690 H 0.27778887659995355 48.819999497204726 32.4328734672571 H 0.0 **** 0.52
9691 H 0.7717600742666848 49.13836223865427 31.037691959198405 H 0.0 **** 0.52
9692 M 0.2399618462684781 49.308131662117425 31.70950566484067 M 0.0 **** -1.04
9693 O 41.06674996877217 6.794904266516667 14.422446444228813 O 0.0 **** 0.0
9694 H 40.81707493166019 7.449039095246022 13.769761022487664 H 0.0 **** 0.52
9695 H 40.23538631904295 6.483574140898874 14.780408620871533 H 0.0 **** 0.52
9696 M 40.92836367881708 6.838787246355807 14.38471873946289 M 0.0 **** -1.04
9697 O 23.141804227825904 24.883320441004262 18.526535255137794 O 0.0 **** 0.0
9698 H 23.783491767954256 25.42435116478736 18.066370898637487 H 0.0 **** 0.52
9699 H 23.28681092767651 23.999496556451742 18.1888111453936 H 0.0 **** 0.52
9700 M 23.24251097118937 24.839438799160682 18.424395610747254 M 0.0 **** -1.04
9701 O 41.800778495524796 23.412893525827176 3.2960965301257232 O 0.0 **** 0.0
9702 H 42.42814874380618 22.896205309443072 2.7904602207832383 H 0.0 **** 0.52
9703 H 41.43605044002871 22.794802994047185 3.929474276723539 H 0.0 **** 0.52
9704 M 41.834399673669274 23.26762812664431 3.3124495364059854 M 0.0 **** -1.04
9705 O 1.6639376664026315 8.09448876126956 11.048538555352547 O 0.0 **** 0.0
9706 H 1.7496546738967709 7.530279183392217 10.280066042226615 H 0.0 **** 0.52
9707 H 1.6165160098836324 8.981200299000925 10.69115647610339 H 0.0 **** 0.52
9708 M 1.6688402815394028 8.135773090511407 10.904415121071871 M 0.0 **** -1.04
9709 O 43.48668601712272 48.34798545290166 8.936050089773696 O 0.0 **** 0.0
9710 H 43.560121922312895 47.46514764615433 9.298588061284951 H 0.0 **** 0.52
9711 H 43.00504843134876 48.84091450206237 9.600333987030284 H 0.0 **** 0.52
9712 M 43.43443136688028 48.29807205658623 9.067496653883609 M 0.0 **** -1.04
9713 O 41.876014283406775 1.1945461511735314 20.297559366081014 O 0.0 **** 0.0
9714 H 41.12079931797333 1.7618345113857958 20.452683066933247 H 0.0 **** 0.52
9715 H 42.629751334702554 1.7835287869920957 20.332330241669926 H 0.0 **** 0.52
9716 M 41.87582458926117 1.3425636487672723 20.321868221426744 M 0.0 **** -1.04
9717 O 37.278269272038216 43.348375410556926 3.2278242583306365 O 0.0 **** 0.0
9718 H 36.5843972229995 43.26355542243889 2.5739322263590156 H 0.0 **** 0.52
9719 H 36.88176843378477 43.85912257849053 3.9336242344801384 H 0.0 **** 0.52
9720 M 37.13868835853848 43.40289925321855 3.234469490755315 M 0.0 **** -1.04
9721 O 33.16049795053875 18.280937166944984 49.79194229050625 O 0.0 **** 0.0
9722 H 32.908253236439876 19.071946835939823 49.31559813933406 H 0.0 **** 0.52
9723 H 32.91580283570039 17.561784459198574 49.2095573860716 H 0.0 **** 0.52
9724 M 33.09688292953253 18.29013583959322 49.65641172085537 M 0.0 **** -1.04
9725 O 41.908947979993044 36.32315431573863 23.239311232206713 O 0.0 **** 0.0
9726 H 41.5053744784332 37.18911841760625 23.29816662485721 H 0.0 **** 0.52
9727 H 42.74386499248748 36.47703273399302 22.797197781572585 H 0.0 **** 0.52
9728 M 41.96416529939206 36.45370669244058 23.190250214026776 M 0.0 **** -1.04
9729 O 8.40897323000653 24.28298481221311 43.12328778784607 O 0.0 **** 0.0
9730 H 8.431758307421546 23.60641841137651 43.80002021133993 H 0.0 **** 0.52
9731 H 8.176490689586359 25.084161968779497 43.59264458046723 H 0.0 **** 0.52
9732 M 8.382129292324763 24.298936848821008 43.27000205893034 M 0.0 **** -1.04
9733 O 33.023810400678 24.14130081752242 31.642570018357638 O 0.0 **** 0.0
9734 H 32.95418508061549 25.091681027767713 31.732894253590292 H 0.0 **** 0.52
9735 H 32.1184634277286 23.831253476316185 31.663721507273102 H 0.0 **** 0.52
9736 M 32.899001200655654 24.22327081368493 31.65684002760433 M 0.0 **** -1.04
9737 O 47.44570934303644 27.717440293524973 16.502043219594427 O 0.0 **** 0.0
9738 H 46.488597625760086 27.70580305066372 16.50748618201463 H 0.0 **** 0.52
9739 H 47.68766739339697 27.198544125853847 15.734950863957925 H 0.0 **** 0.52
9740 M 47.354160990179125 27.649525460099888 16.404542132031487 M 0.0 **** -1.04
9741 O 0.794578208260158 10.704255971759817 27.57729347302287 O 0.0 **** 0.0
9742 H 0.6215321916027321 11.453195781024464 27.006878012339143 H 0.0 **** 0.52
9743 H 0.36722250020987357 9.966895237596548 27.141525778681686 H 0.0 **** 0.52
9744 M 0.7177195097907347 10.705738231901359 27.448489562428335 M 0.0 **** -1.04
9745 O 14.887217308736044 15.285427586615336 1.0210177544097334 O 0.0 **** 0.0
9746 H 14.931513545280191 14.334205786043464 1.118195633895958 H 0.0 **** 0.52
9747 H 14.082092000223374 15.535726790523801 1.474176041501309 H 0.0 **** 0.52
9748 M 14.789821983572544 15.195701151934802 1.0914678253948296 M 0.0 **** -1.04
9749 O 45.2260654879898 1.5261319532816628 28.837729564838277 O 0.0 **** 0.0
9750 H 45.53950901295377 0.9081230986503499 28.17739188485215 H 0.0 **** 0.52
9751 H 45.955866581873934 1.6126819223428583 29.451022547534993 H 0.0 **** 0.52
9752 M 45.35961368440153 1.4580986296929126 28.831707388019044 M 0.0 **** -1.04
9753 O 35.07051740982973 40.584064804773305 44.631312980166655 O 0.0 **** 0.0
9754 H 35.06855031236455 41.21782648619647 45.34864867925987 H 0.0 **** 0.52
9755 H 34.32861935164453 40.00859610829625 44.81746517424536 H 0.0 **** 0.52
9756 M 34.97529304786372 40.59152718781003 44.746970597492805 M 0.0 **** -1.04
9757 O 46.33851536964466 39.080377948675775 32.83091678353737 O 0.0 **** 0.0
9758 H 45.51385796788286 38.60081399902987 32.909580937214784 H 0.0 **** 0.52
9759 H 46.83979876179422 38.59045923670655 32.17905516996994 H 0.0 **** 0.52
9760 M 46.297119058994866 38.956271935383725 32.75754088570746 M 0.0 **** -1.04
9761 O 47.15609220161674 22.25732428321381 17.54455285458876 O 0.0 **** 0.0
9762 H 47.41507349324781 21.378499481200844 17.82172506311852 H 0.0 **** 0.52
9763 H 47.97799945454486 22.7454838870668 17.495593949785544 H 0.0 **** 0.52
9764 M 47.29445920218683 22.20731425637256 17.57376700851421 M 0.0 **** -1.04
9765 O 15.212994095268566 35.48574251175278 15.413483024550164 O 0.0 **** 0.0
9766 H 15.296256594293855 36.238957445760924 15.998258864533687 H 0.0 **** 0.52
9767 H 14.318362426656668 35.540483078540106 15.077525486998518 H 0.0 **** 0.52
9768 M 15.109128691557302 35.589170955398714 15.445334954348564 M 0.0 **** -1.04
9769 O 21.785945160571742 31.031574059485937 43.1302316868669 O 0.0 **** 0.0
9770 H 21.297378809588842 30.905393220594995 43.94362567339809 H 0.0 **** 0.52
9771 H 21.84348352054912 31.981745158688664 43.029771214898716 H 0.0 **** 0.52
9772 M 21.73076806208311 31.13705503853156 43.221495836624364 M 0.0 **** -1.04
9773 O 41.40689736285848 27.500046009798172 42.397170883468775 O 0.0 **** 0.0
9774 H 42.230631388995604 27.851140640409877 42.73543733538532 H 0.0 **** 0.52
9775 H 41.51951755542997 26.550056971112266 42.429836225047346 H 0.0 **** 0.52
9776 M 41.52676253484292 27.42338012197604 42.44465531774544 M 0.0 **** -1.04
9777 O 27.261957562844746 41.021051500233874 11.008442646372224 O 0.0 **** 0.0
9778 H 27.40606254852251 40.912443542016774 11.948477186041764 H 0.0 **** 0.52
9779 H 26.852385601877877 41.8822958485891 10.926361753961501 H 0.0 **** 0.52
9780 M 27.22797471921787 41.11739828410394 11.118271456854387 M 0.0 **** -1.04
9781 O 15.365702763601295 6.041519998341161 28.650244667307348 O 0.0 **** 0.0
9782 H 14.800931182326806 6.063438536174939 27.877728633487774 H 0.0 **** 0.52
9783 H 15.702942347970557 5.1460569933124685 28.67565116363824 H 0.0 **** 0.52
9784 M 15.336576052871715 5.929694823389805 28.55460504558518 M 0.0 **** -1.04
9785 O 6.309427887081553 42.697920847712254 43.60989348260231 O 0.0 **** 0.0
9786 H 5.658684744384595 42.16227611231022 43.15619106318276 H 0.0 **** 0.52
9787 H 6.971421109814673 42.07265511270407 43.90491293494791 H 0.0 **** 0.52
9788 M 6.310868376149125 42.549309869929985 43.58958017174839 M 0.0 **** -1.04
9789 O 45.21348311710909 1.3296721265972948 35.38342842547087 O 0.0 **** 0.0
9790 H 45.50756438758711 1.8853291345585745 34.661631341255 H 0.0 **** 0.52
9791 H 44.260642211344475 1.4208987279324319 35.38369971220914 H 0.0 **** 0.52
9792 M 45.129154141322715 1.412481156982338 35.29106401971567 M 0.0 **** -1.04
9793 O 42.18483221181202 6.948221235818856 42.89269596142604 O 0.0 **** 0.0
9794 H 41.6402853595875 6.584271071040682 43.59071885078992 H 0.0 **** 0.52
9795 H 42.03744015581106 6.367782225032414 42.145972217516245 H 0.0 **** 0.52
9796 M 42.09625551075822 6.8273276298689325 42.8864615792722 M 0.0 **** -1.04
9797 O 30.554943215210812 41.11564503888367 13.378617738750165 O 0.0 **** 0.0
9798 H 31.320673296665603 41.56476261893586 13.736636854933174 H 0.0 **** 0.52
9799 H 30.43707768996549 41.49821776632324 12.509150750876401 H 0.0 **** 0.52
9800 M 30.637877549349213 41.22211126892708 13.313146112236318 M 0.0 **** -1.04
9801 O 14.483416110487171 37.08866421179589 29.073302956162447 O 0.0 **** 0.0
9802 H 15.145927273426214 36.52649212673893 29.47488661720071 H 0.0 **** 0.52
9803 H 14.78768122895206 37.97954766110611 29.24644886218298 H 0.0 **** 0.52
9804 M 14.607175591516588 37.13074352885914 29.146875938355784 M 0.0 **** -1.04
9805 O 27.13468662996756 1.230564625890121 19.7560956099471 O 0.0 **** 0.0
9806 H 26.672623362111494 0.7387238778517538 19.077258828958485 H 0.0 **** 0.52
9807 H 28.02242139224154 0.8726357573965833 19.74957400592363 H 0.0 **** 0.52
9808 M 27.189178625268397 1.1217835097893905 19.66836174226744 M 0.0 **** -1.04
9809 O 1.4742120215382635 28.571890064897126 22.081007424844643 O 0.0 **** 0.0
9810 H 0.7615765388359669 28.24648303664825 22.630998078363746 H 0.0 **** 0.52
9811 H 1.05411479456397 29.1939596729302 21.487057452913888 H 0.0 **** 0.52
9812 M 1.3292080474665862 28.60986705408324 22.075380006982954 M 0.0 **** -1.04
9813 O 40.10184158883934 6.9205290380322015 10.361153240581906 O 0.0 **** 0.0
9814 H 39.49852043187 7.622816928290795 10.60410004738192 H 0.0 **** 0.52
9815 H 40.9540857416664 7.350376125902275 10.289463313069575 H 0.0 **** 0.52
9816 M 40.13370668971757 7.065456445676169 10.383076622633837 M 0.0 **** -1.04
9817 O 0.16935110396909892 42.9579268106558 44.748238019105756 O 0.0 **** 0.0
9818 H -0.07768057721435184 42.03322378552276 44.73694048608026 H 0.0 **** 0.52
9819 H -0.6317807890924314 43.42330943223944 44.50774771191318 H 0.0 **** 0.52
9820 M 0.03517295766395989 42.89912823434923 44.71600617838168 M 0.0 **** -1.04
9821 O 45.64300935644062 23.830970555567234 22.909071114043805 O 0.0 **** 0.0
9822 H 46.07819652180911 24.378158031112804 22.25529265408635 H 0.0 **** 0.52
9823 H 46.28185856324389 23.148366145538247 23.1143782365544 H 0.0 **** 0.52
9824 M 45.78049878860942 23.81363596840734 22.85166102117794 M 0.0 **** -1.04
9825 O 23.45127486671924 38.07968678658364 1.716985836101621 O 0.0 **** 0.0
9826 H 24.250809295532214 38.44199556297384 1.3352716667747373 H 0.0 **** 0.52
9827 H 23.690714143728776 37.867806547271094 2.6192078054348613 H 0.0 **** 0.52
9828 M 23.584276856628367 38.098943926982884 1.7836175776130574 M 0.0 **** -1.04
9829 O 26.63671816973466 12.029211611069277 7.506409635892747 O 0.0 **** 0.0
9830 H 26.61591347389268 12.844971820969176 8.006740161343027 H 0.0 **** 0.52
9831 H 26.401104501023354 12.288027929330834 6.615494929022731 H 0.0 **** 0.52
9832 M 26.603893112068306 12.166770915655398 7.456409862403095 M 0.0 **** -1.04
9833 O 6.522142838059851 11.37117248605601 35.391017327983505 O 0.0 **** 0.0
9834 H 5.758099679295481 11.945512044869131 35.34002059826246 H 0.0 **** 0.52
9835 H 7.117410556881228 11.816616442719948 35.99389697255388 H 0.0 **** 0.52
9836 M 6.5005377690081865 11.501717201424979 35.46166562142712 M 0.0 **** -1.04
9837 O 38.25416902834778 3.4052455078712156 28.242168023397383 O 0.0 **** 0.0
9838 H 37.902514003905814 2.633004925472731 27.799209147971485 H 0.0 **** 0.52
9839 H 38.62186705974244 3.0669583819319683 29.058617213158307 H 0.0 **** 0.52
9840 M 38.25622345139746 3.263083884601391 28.289979697172953 M 0.0 **** -1.04
9841 O 9.485818186636976 13.815631505274174 19.69735102312299 O 0.0 **** 0.0
9842 H 9.571765362151048 12.862354251065462 19.687173205554263 H 0.0 **** 0.52
9843 H 8.628318504884334 13.98346895737846 19.306513585494162 H 0.0 **** 0.52
9844 M 9.387048942641151 13.715085331687195 19.646015617139287 M 0.0 **** -1.04
9845 O 37.040995142231196 38.872726935208526 34.61039415455703 O 0.0 **** 0.0
9846 H 36.753323550364314 39.6986304937809 34.999441159043585 H 0.0 **** 0.52
9847 H 37.66549987121371 38.514870684347734 35.24139516974325 H 0.0 **** 0.52
9848 M 37.08411370360895 38.93264188017265 34.740973087213305 M 0.0 **** -1.04
9849 O 18.807836066550465 0.395275272214036 31.8368655267777 O 0.0 **** 0.0
9850 H 19.33603438407168 1.0865514806771444 31.4376507004037 H 0.0 **** 0.52
9851 H 17.90707600754942 0.7118265272878403 31.768639440235912 H 0.0 **** 0.52
9852 M 18.76014363096175 0.5242888749296739 31.777027238801228 M 0.0 **** -1.04
9853 O 44.823314037642795 48.07239942484692 31.047078510047847 O 0.0 **** 0.0
9854 H 44.07567473370311 48.47198179251374 30.602556988815163 H 0.0 **** 0.52
9855 H 44.46050638621108 47.29896294015755 31.478812562721043 H 0.0 **** 0.52
9856 M 44.68116263757794 48.024541769745774 31.045441303948802 M 0.0 **** -1.04
9857 O 12.884753598544918 45.61509349591995 26.844612770463673 O 0.0 **** 0.0
9858 H 11.937272015558946 45.74528972931104 26.805155819249805 H 0.0 **** 0.52
9859 H 13.013411518085698 44.705494201946166 26.57571671386608 H 0.0 **** 0.52
9860 M 12.779933811204423 45.515320233086996 26.80513899853146 M 0.0 **** -1.04
9861 O 11.099399339354584 10.072422718108841 3.906492217051891 O 0.0 **** 0.0
9862 H 11.90059596041202 10.263147220856487 4.394280183667256 H 0.0 **** 0.52
9863 H 11.258765147364784 10.431211795855592 3.033508113097625 H 0.0 **** 0.52
9864 M 11.222363157729767 10.142767056335636 3.8571824139998867 M 0.0 **** -1.04
9865 O 4.961042342119761 15.878805123964948 36.86279351111401 O 0.0 **** 0.0
9866 H 5.158670461855621 16.815318322199765 36.87350853193738 H 0.0 **** 0.52
9867 H 4.670487744265358 15.68463346658789 37.7539186874965 H 0.0 **** 0.52
9868 M 4.949146381488859 15.973834559515174 36.9782405245907 M 0.0 **** -1.04
9869 O 27.43227227083367 23.134724409274767 22.039181559661213 O 0.0 **** 0.0
9870 H 26.7954288220118 23.480263080875666 21.413671929916717 H 0.0 **** 0.52
9871 H 27.05165602924638 22.308724146957296 22.337650821186713 H 0.0 **** 0.52
9872 M 27.302025036953804 23.073219737768078 21.997315978063664 M 0.0 **** -1.04
9873 O 23.634276685655134 24.126616334867393 24.943917117909997 O 0.0 **** 0.0
9874 H 22.82846479536268 23.72504593062355 25.268935072603995 H 0.0 **** 0.52
9875 H 23.717926166389994 23.804436708009206 24.046458945417797 H 0.0 **** 0.52
9876 M 23.541831424552566 24.033967199346286 24.870637319616847 M 0.0 **** -1.04
9877 O 43.7897077171108 0.5280457784135816 11.690044689222804 O 0.0 **** 0.0
9878 H 44.70407277714156 0.2685096897593215 11.576879355437292 H 0.0 **** 0.52
9879 H 43.78035567662678 1.4651604219319472 11.495215859187207 H 0.0 **** 0.52
9880 M 43.90556077571111 0.614785106673668 11.65061739167483 M 0.0 **** -1.04
9881 O 34.84281381347221 3.851316748341784 48.995923307801725 O 0.0 **** 0.0
9882 H 33.91726015352566 4.040442869710423 49.150228006621795 H 0.0 **** 0.52
9883 H 35.18882600290287 4.651870918644921 48.60143951314217 H 0.0 **** 0.52
9884 M 34.76862565888178 3.9780085458659484 48.965177178214866 M 0.0 **** -1.04
9885 O 31.616102287402384 38.33244239609316 24.76647228360978 O 0.0 **** 0.0
9886 H 31.360708448048484 39.18064930623398 24.403777013544428 H 0.0 **** 0.52
9887 H 32.01434048004842 38.542695324832785 25.6111186991943 H 0.0 **** 0.52
9888 M 31.634387829050212 38.4679383631751 24.82816741568016 M 0.0 **** -1.04
9889 O 7.730704930334063 7.086981121980443 19.32405543201607 O 0.0 **** 0.0
9890 H 7.093408321066455 6.979108357869734 20.03006138080474 H 0.0 **** 0.52
9891 H 7.607048319139729 7.987709957979014 19.02468069236282 H 0.0 **** 0.52
9892 M 7.633293565864399 7.188476076372538 19.376109589065255 M 0.0 **** -1.04
9893 O 21.079888734755126 33.927989042372275 1.9642019736758556 O 0.0 **** 0.0
9894 H 21.459359420006578 34.546366132306424 1.3398296364469715 H 0.0 **** 0.52
9895 H 21.090688418379294 34.39400692442235 2.8002275159725514 H 0.0 **** 0.52
9896 M 21.12984838104347 34.06680483219111 1.9912957381563459 M 0.0 **** -1.04
9897 O 14.606448475895036 22.919891427052487 18.71968488573802 O 0.0 **** 0.0
9898 H 15.516215975844148 22.765055993550366 18.46556498179939 H 0.0 **** 0.52
9899 H 14.29813178628747 22.071094052776335 19.03703919638238 H 0.0 **** 0.52
9900 M 14.683441714233496 22.791413713454247 18.72778067153716 M 0.0 **** -1.04
9901 O 36.51619863488944 22.759768655929516 45.84323671560877 O 0.0 **** 0.0
9902 H 37.24878691370682 22.222439856263005 46.14460043816439 H 0.0 **** 0.52
9903 H 35.87104023206994 22.128738376796026 45.5241740658402 H 0.0 **** 0.52
9904 M 36.5273910199086 22.610204156321213 45.840970759854116 M 0.0 **** -1.04
9905 O 25.616104442195702 44.03064262068607 28.82332844604105 O 0.0 **** 0.0
9906 H 25.108642286262047 43.29848620444326 29.173552228186967 H 0.0 **** 0.52
9907 H 24.96887739130059 44.71839451399461 28.66737265689851 H 0.0 **** 0.52
9908 M 25.468289361947093 44.02495797813596 28.848196936148014 M 0.0 **** -1.04
9909 O 26.10806278171523 39.76418432397116 30.43627943793557 O 0.0 **** 0.0
9910 H 25.46522828641885 39.372070052675966 31.027243527702424 H 0.0 **** 0.52
9911 H 26.21389941268569 39.12061900975469 29.73567171399332 H 0.0 **** 0.52
9912 M 26.039320503781727 39.6316041031791 30.422243758249543 M 0.0 **** -1.04
9913 O 32.14021189396091 48.97039112074828 18.44852919425797 O 0.0 **** 0.0
9914 H 32.462628984668484 48.1234196742613 18.140443631679393 H 0.0 **** 0.52
9915 H 32.91182098310102 49.401840868180074 18.815542865843025 H 0.0 **** 0.52
9916 M 32.280261390524366 48.91719895563211 18.456072706939384 M 0.0 **** -1.04
9917 O 26.90350682408639 27.803246543557854 2.2673025013940222 O 0.0 **** 0.0
9918 H 26.68200428765813 27.35928813894887 1.4487275625923133 H 0.0 **** 0.52
9919 H 27.6475635545482 28.362249985436968 2.0434178232244404 H 0.0 **** 0.52
9920 M 26.970400673156423 27.81797412195256 2.1338544589908808 M 0.0 **** -1.04
9921 O 2.852907382138816 0.8634516415204914 12.82085108805718 O 0.0 **** 0.0
9922 H 3.7844999533920176 0.6457841498517993 12.852221862562995 H 0.0 **** 0.52
9923 H 2.719385402827492 1.4541824786895745 13.562091232795636 H 0.0 **** 0.52
9924 M 2.9550712958525076 0.9112084211351785 12.919754408297454 M 0.0 **** -1.04
9925 O 23.866615183371028 42.81391472547356 32.310552847360434 O 0.0 **** 0.0
9926 H 23.854297199818117 43.74576972241316 32.092097480090935 H 0.0 **** 0.52
9927 H 23.911848056189175 42.36952960155416 31.463969050514706 H 0.0 **** 0.52
9928 M 23.870828991623764 42.87631648871486 32.17421423860127 M 0.0 **** -1.04
9929 O 17.62858033045673 3.1183203902647705 10.168288145593609 O 0.0 **** 0.0
9930 H 16.7771391743338 3.1229068967476934 9.73095961444215 H 0.0 **** 0.52
9931 H 17.514241862265827 2.524089494005281 10.909937853916322 H 0.0 **** 0.52
9932 M 17.50494839235326 3.0428388122363828 10.20724457270285 M 0.0 **** -1.04
9933 O 29.872657678915804 20.908997983074784 4.279214360129032 O 0.0 **** 0.0
9934 H 29.82927255619092 20.15328118427739 4.865080546824942 H 0.0 **** 0.52
9935 H 28.962306187795704 21.0759405323643 4.035042927219301 H 0.0 **** 0.52
9936 M 29.750566991113796 20.833627238849232 4.322955531077213 M 0.0 **** -1.04
9937 O 22.16711548876329 37.569557701138244 14.660538789140531 O 0.0 **** 0.0
9938 H 21.541194771593364 36.853953388256926 14.549346753144285 H 0.0 **** 0.52
9939 H 22.730667267355294 37.285801844203576 15.38034464003569 H 0.0 **** 0.52
9940 M 22.159130809299974 37.44162695840821 14.738448544944314 M 0.0 **** -1.04
9941 O 42.68708301807033 47.35865502268968 19.510627295520102 O 0.0 **** 0.0
9942 H 41.88124817916368 47.14579619079914 19.039935419273103 H 0.0 **** 0.52
9943 H 43.171909150071336 47.926608060635225 18.911793923551055 H 0.0 **** 0.52
9944 M 42.645989278095186 47.4041120663594 19.373714676186914 M 0.0 **** -1.04
9945 O 48.259255275150004 11.119433606664458 42.057489408934686 O 0.0 **** 0.0
9946 H 48.23545148737884 10.972124032360533 43.002984352764486 H 0.0 **** 0.52
9947 H 47.531634612486755 11.718248048017756 41.88950652935528 H 0.0 **** 0.52
9948 M 48.163063689873844 11.177232135851348 42.157021308644794 M 0.0 **** -1.04
9949 O 44.009829802977976 32.38939267311957 13.031492981685545 O 0.0 **** 0.0
9950 H 44.11028553897327 33.056511716245524 13.710528542658501 H 0.0 **** 0.52
9951 H 43.61556803105644 32.85509338565164 12.293990491483704 H 0.0 **** 0.52
9952 M 43.97221855492009 32.53440763559355 13.024008428246255 M 0.0 **** -1.04
9953 O 36.01124641043078 32.933407661460556 27.955862050212176 O 0.0 **** 0.0
9954 H 35.70196959953505 33.33719125032615 27.14497578191188 H 0.0 **** 0.52
9955 H 36.17462087177474 32.01974016077105 27.721877491870515 H 0.0 **** 0.52
9956 M 35.99256894633182 32.86813611389477 27.822104959831137 M 0.0 **** -1.04
9957 O 23.664600573487025 22.25436604238043 9.567645339084905 O 0.0 **** 0.0
9958 H 24.36477337765385 22.864249821691843 9.335204950641838 H 0.0 **** 0.52
9959 H 23.065079169772666 22.771136135244994 10.105930400333762 H 0.0 **** 0.52
9960 M 23.67748545872499 22.39859227188732 9.606797288252764 M 0.0 **** -1.04
9961 O 9.717656410942043 35.70640350974813 13.267113236172742 O 0.0 **** 0.0
9962 H 9.9214867401889 36.434074516585355 12.67959566723611 H 0.0 **** 0.52
9963 H 9.178991894247119 36.09712433050426 13.955158327593407 H 0.0 **** 0.52
9964 M 9.674793326468588 35.849571688733185 13.279982485393786 M 0.0 **** -1.04
9965 O 5.471490079297256 34.08287650017826 14.362190627184276 O 0.0 **** 0.0
9966 H 5.343056509686824 34.90028112438434 14.843421838418479 H 0.0 **** 0.52
9967 H 4.588694366651142 33.81068735040018 14.111564410355246 H 0.0 **** 0.52
9968 M 5.342039932249635 34.15267097956549 14.39171113968697 M 0.0 **** -1.04
9969 O 18.943747232398444 23.173215122115256 0.5987596866830316 O 0.0 **** 0.0
9970 H 18.62130484208599 23.9686328331401 1.0225184306106243 H 0.0 **** 0.52
9971 H 18.257240546006077 22.938821457244266 -0.025737375769971038 H 0.0 **** 0.52
9972 M 18.814589630867783 23.245033247404606 0.5730622550257038 M 0.0 **** -1.04
9973 O 34.58485901932516 11.104383573544647 37.051507252423896 O 0.0 **** 0.0
9974 H 34.84847690614478 10.490147571413804 36.366344181593256 H 0.0 **** 0.52
9975 H 35.094950322927225 11.89476145896325 36.874481461840254 H 0.0 **** 0.52
9976 M 34.68390334841142 11.126931635792763 36.94113632975987 M 0.0 **** -1.04
9977 O 21.0848039543164 8.872870199594882 16.890435290240376 O 0.0 **** 0.0
9978 H 20.254037126923194 9.348260367782395 16.898089130466104 H 0.0 **** 0.52
9979 H 20.99438040932972 8.220447598796548 17.58498320069731 H 0.0 **** 0.52
9980 M 20.966880652488186 8.85020852291521 16.980326065234195 M 0.0 **** -1.04
9981 O 11.674477848770309 31.99899374034474 22.999723350282434 O 0.0 **** 0.0
9982 H 11.133624734414873 32.478130669722816 22.371922942239543 H 0.0 **** 0.52
9983 H 11.049200788727696 31.634575708250022 23.626187069161126 H 0.0 **** 0.52
9984 M 11.525198845720197 32.01367924008778 22.999552550249817 M 0.0 **** -1.04
9985 O 18.062378572942904 32.20710785744901 4.988194122457223 O 0.0 **** 0.0
9986 H 18.673642963905237 32.905030819918366 5.223755585898168 H 0.0 **** 0.52
9987 H 18.444289853808158 31.41550754280814 5.367326864869824 H 0.0 **** 0.52
9988 M 18.189517973409068 32.1951163492606 5.066882711194538 M 0.0 **** -1.04
9989 O 13.14116633531231 13.191982074936151 18.547994815137486 O 0.0 **** 0.0
9990 H 12.81457710524849 12.316150184074552 18.7541178254762 H 0.0 **** 0.52
9991 H 13.592934739343095 13.473070065973223 19.343685504437794 H 0.0 **** 0.52
9992 M 13.15719082313966 13.115847661479128 18.67623887901736 M 0.0 **** -1.04
9993 O 33.36539337114149 3.9576453282975512 15.374440178987797 O 0.0 **** 0.0
9994 H 33.02580776817006 3.0678785624286373 15.470488299522316 H 0.0 **** 0.52
9995 H 34.27624431843475 3.8391192642007685 15.105125201695031 H 0.0 **** 0.52
9996 M 33.438522567987 3.8285717176138387 15.352260062243573 M 0.0 **** -1.04
9997 M 30.885103267286002 47.76910443749146 10.133432240879824 M 0.0 **** -1.04
9998 O 30.901661394943257 47.640163529210255 10.058599579868073 O 0.0 **** 0.0
9999 H 30.60237143550083 47.760246799260784 10.95983992078982 H 0.0 **** 0.52
10000 H 31.071604905269027 48.527334361345595 9.74193606368056 H 0.0 **** 0.52
10001 O 20.962432337285847 7.232729524831747 18.93741472425367 O 0.0 **** 0.0
10002 H 20.27204744319969 7.422941540220663 19.5725651924742 H 0.0 **** 0.52
10003 H 20.54489186241059 6.661155348232143 18.293060446300245 H 0.0 **** 0.52
10004 M 20.820603755811913 7.183909980427927 18.93623637656229 M 0.0 **** -1.04
10005 O 0.03811602470175031 28.36169388702154 24.517686373736815 O 0.0 **** 0.0
10006 H -0.670277407415071 27.731252665692498 24.647881472453232 H 0.0 **** 0.52
10007 H 0.7944182900263557 27.96564928711911 24.95056645391015 H 0.0 **** 0.52
10008 M 0.04424879989711203 28.230290596463988 24.589766956830136 M 0.0 **** -1.04
10009 O 19.878011312006834 11.593396578738428 37.45110520064996 O 0.0 **** 0.0
10010 H 20.405404427809767 10.974228984494992 36.94641054581361 H 0.0 **** 0.52
10011 H 20.097113695322133 11.406889844167324 38.36403286309266 H 0.0 **** 0.52
10012 M 19.97357178292228 11.490259734595533 37.503364256857076 M 0.0 **** -1.04
10013 O 9.604045443728051 48.40212002502994 35.94470608627527 O 0.0 **** 0.0
10014 H 10.537095193305683 48.18924059383303 35.96285031257549 H 0.0 **** 0.52
10015 H 9.338107874393028 48.23849048944497 35.03986858560067 H 0.0 **** 0.52
10016 M 9.689444273247767 48.35392288961115 35.83119840268908 M 0.0 **** -1.04
10017 O 38.21362195133761 43.62635332528697 7.520168155170856 O 0.0 **** 0.0
10018 H 37.867961443634805 43.77676761247048 8.400011493015807 H 0.0 **** 0.52
10019 H 37.43620768191807 43.538301424518465 6.968712135327606 H 0.0 **** 0.52
10020 M 38.06985415256242 43.634337095780694 7.562206053072934 M 0.0 **** -1.04
10021 O 13.210088774226904 39.20745573234415 34.28882523092739 O 0.0 **** 0.0
10022 H 12.26251043626101 39.084707292306646 34.23175893256261 H 0.0 **** 0.52
10023 H 13.414353975811515 39.07188223013108 35.214095859236295 H 0.0 **** 0.52
10024 M 13.114935116889669 39.174387364748476 34.39996691569914 M 0.0 **** -1.04
10025 O 36.17544160040002 21.941023390274452 16.661799619950386 O 0.0 **** 0.0
10026 H 37.115307207522065 22.115968830852466 16.709495536192065 H 0.0 **** 0.52
10027 H 36.033656566293274 21.22183567386924 17.277343244143054 H 0.0 **** 0.52
10028 M 36.27760589419653 21.87135362834879 16.746702891714534 M 0.0 **** -1.04
10029 O 0.7459913167261405 34.636155533846186 42.15871614521146 O 0.0 **** 0.0
10030 H -0.17121344830736263 34.58052918583694 41.89062912568068 H 0.0 **** 0.52
10031 H 1.077591872804902 33.742985668849656 42.06641814850928 H 0.0 **** 0.52
10032 M 0.6710271472544846 34.514697095629266 42.11258255009543 M 0.0 **** -1.04
10033 O 36.963834980096536 34.42556783983781 0.19950435480363335 O 0.0 **** 0.0
10034 H 36.12806550945058 34.558971597372626 0.6466302803071373 H 0.0 **** 0.52
10035 H 37.61117776206326 34.39772399440303 0.9040613087297111 H 0.0 **** 0.52
10036 M 36.939714417898436 34.439081209656116 0.3469338645240144 M 0.0 **** -1.04
10037 O 28.00388807156824 27.598994013167044 42.74274744502997 O 0.0 **** 0.0
10038 H 28.244086897399427 26.77353222264361 43.16363416828909 H 0.0 **** 0.52
10039 H 28.12153018075783 27.43447960205536 41.80715909101276 H 0.0 **** 0.52
10040 M 28.049695805562692 27.47226454978201 42.67685894294175 M 0.0 **** -1.04
10041 O 45.06624273624705 23.121733738430105 35.260410179120086 O 0.0 **** 0.0
10042 H 44.37339604886622 23.7765711507017 35.34631780098224 H 0.0 **** 0.52
10043 H 45.80421139423717 23.601136748367246 34.88384099396596 H 0.0 **** 0.52
10044 M 45.07201859978985 23.26693032700019 35.22320193256171 M 0.0 **** -1.04
10045 O 9.98900930119428 17.11681435488471 26.57591189020978 O 0.0 **** 0.0
10046 H 9.06099399725895 16.88458941912654 26.542910907372917 H 0.0 **** 0.52
10047 H 10.422727311446861 16.326925207616895 26.89870073196291 H 0.0 **** 0.52
10048 M 9.925733145887472 16.9859707519541 26.613007892254913 M 0.0 **** -1.04
10049 O 29.861408146364347 16.356697363641544 20.450223480688297 O 0.0 **** 0.0
10050 H 30.08758175874266 16.49171623714458 19.529982963521327 H 0.0 **** 0.52
10051 H 30.388752712083853 16.99998696690071 20.923844173694633 H 0.0 **** 0.52
10052 M 29.95786787332536 16.456330574467813 20.393051171717463 M 0.0 **** -1.04
10053 O 30.490891863198694 9.49505992360914 44.92331318504881 O 0.0 **** 0.0
10054 H 30.42433631972624 10.331372392027092 45.384159967945166 H 0.0 **** 0.52
10055 H 29.740273826743483 8.989149297209977 45.23453008769663 H 0.0 **** 0.52
10056 M 30.386283628321895 9.537355285055476 45.02214744536419 M 0.0 **** -1.04
10057 O 42.5494504199833 37.8537548296991 31.45828933930011 O 0.0 **** 0.0
10058 H 43.27813760242657 37.46039702206033 30.978170655403876 H 0.0 **** 0.52
10059 H 41.8504706783589 37.20156991707478 31.410223838349374 H 0.0 **** 0.52
10060 M 42.55325344998972 37.719911938861834 31.390675785443754 M 0.0 **** -1.04
10061 O 24.03029848921686 38.18737067319387 10.894690488967697 O 0.0 **** 0.0
10062 H 23.763987114046643 38.909063742720576 11.464310282005286 H 0.0 **** 0.52
10063 H 24.852240780559626 38.481961452677034 10.502448160396668 H 0.0 **** 0.52
10064 M 24.101425985998205 38.31746767762341 10.917397419320665 M 0.0 **** -1.04
10065 O 28.54039600357675 26.57515100619293 37.05109132505581 O 0.0 **** 0.0
10066 H 29.45500746431057 26.39131674491414 37.26538095912971 H 0.0 **** 0.52
10067 H 28.578885852316343 27.045474818041516 36.21829854153922 H 0.0 **** 0.52
10068 M 28.662404656149622 26.611824979174585 36.97191493622621 M 0.0 **** -1.04
10069 O 9.992036165466216 46.46533294724196 26.289243232149786 O 0.0 **** 0.0
10070 H 9.615504511411041 47.15830260176841 26.831686006541453 H 0.0 **** 0.52
10071 H 9.382083402878719 45.732993315794715 26.377925401599736 H 0.0 **** 0.52
10072 M 9.865752978799064 46.460292885951105 26.370035110339174 M 0.0 **** -1.04
10073 O 43.43997887092023 28.077159953293698 47.03485875415462 O 0.0 **** 0.0
10074 H 44.35144862899226 28.265011147334715 47.2588319779919 H 0.0 **** 0.52
10075 H 43.17033612434284 28.81488343474322 46.487789495765156 H 0.0 **** 0.52
10076 M 43.52214090358199 28.195645298033803 46.993499180550444 M 0.0 **** -1.04
10077 O 18.362798977382102 18.891336037364233 45.634281726973995 O 0.0 **** 0.0
10078 H 17.45905502802159 19.201158756388413 45.575241601938615 H 0.0 **** 0.52
10079 H 18.40089070718186 18.146631891739357 45.034120804157915 H 0.0 **** 0.52
10080 M 18.25198439890382 18.835665381664807 45.549895027810784 M 0.0 **** -1.04
10081 O 12.81796900949449 38.62683291090864 40.45821726808892 O 0.0 **** 0.0
10082 H 12.469541600387196 39.49628864548478 40.655381567433466 H 0.0 **** 0.52
10083 H 13.482997974263725 38.47676527436279 41.130114286826235 H 0.0 **** 0.52
10084 M 12.858498361342818 38.71892371953763 40.56946778114303 M 0.0 **** -1.04
10085 O 32.56655462463614 46.349628194496674 18.116922029031674 O 0.0 **** 0.0
10086 H 32.78738344210882 46.15264416198311 19.02723011771629 H 0.0 **** 0.52
10087 H 33.05343196230783 45.702633722963604 17.60645528673332 H 0.0 **** 0.52
10088 M 32.657149653566144 46.24158881219707 18.168106997532938 M 0.0 **** -1.04
10089 O 0.769834010209145 27.44978596743818 5.566224385248752 O 0.0 **** 0.0
10090 H 0.5450944736286445 27.087857746749552 6.423387161939829 H 0.0 **** 0.52
10091 H 0.3305235379720628 26.87432624363608 4.940061347409987 H 0.0 **** 0.52
10092 M 0.6848275120382681 27.329788725329795 5.595795361629413 M 0.0 **** -1.04
10093 O 4.208390913373137 44.42496793801456 39.95795861636643 O 0.0 **** 0.0
10094 H 3.780273668997488 44.07843578875172 40.740811282303504 H 0.0 **** 0.52
10095 H 5.05258886557511 44.7505440146414 40.27030401501123 H 0.0 **** 0.52
10096 M 4.261654678541731 44.42228576154097 40.09815721052285 M 0.0 **** -1.04
10097 O 8.367875247029794 41.58625811230018 35.75381090423677 O 0.0 **** 0.0
10098 H 7.597157096229687 41.87692716892174 35.266229776197406 H 0.0 **** 0.52
10099 H 8.19900501970929 41.86031339809731 36.6552572126304 H 0.0 **** 0.52
10100 M 8.247595655969135 41.65854998159977 35.806790524030184 M 0.0 **** -1.04
10101 O 47.870741451551304 6.460205578371827 19.233304270592075 O 0.0 **** 0.0
10102 H 47.13607255753843 6.734961850390796 19.781937993358948 H 0.0 **** 0.52
10103 H 48.6343341321496 6.519429289895413 19.807452641127078 H 0.0 **** 0.52
10104 M 47.87444383759882 6.502959046106142 19.377034403839225 M 0.0 **** -1.04
10105 O 15.292980031934661 16.488636603277826 29.245290172965337 O 0.0 **** 0.0
10106 H 15.613979562968893 16.584602730437922 30.14193861927839 H 0.0 **** 0.52
10107 H 15.796588158089776 15.75770802807979 28.887031127318988 H 0.0 **** 0.52
10108 M 15.398540206697888 16.407352998227438 29.314210835403895 M 0.0 **** -1.04
10109 O 24.273452055405595 42.31917228428156 16.349690857345553 O 0.0 **** 0.0
10110 H 25.038389114890155 42.858348952640874 16.55065859506386 H 0.0 **** 0.52
10111 H 24.53696710973429 41.80328965585274 15.58768479773641 H 0.0 **** 0.52
10112 M 24.40510671083455 42.32215446516737 16.277871289719197 M 0.0 **** -1.04
10113 O 17.76078217071197 4.407177954823467 30.86778289374555 O 0.0 **** 0.0
10114 H 18.130304573386038 5.20350955861565 30.486289548663287 H 0.0 **** 0.52
10115 H 17.57553720196354 4.640455708382406 31.777450094733467 H 0.0 **** 0.52
10116 M 17.784371902951037 4.538980850791769 30.935395252484653 M 0.0 **** -1.04
10117 O 30.886739696120326 29.784552817761654 34.32234366988706 O 0.0 **** 0.0
10118 H 30.884934268895964 29.98178887348999 33.385687539479456 H 0.0 **** 0.52
10119 H 30.075050376468756 29.29820381674693 34.466749297064204 H 0.0 **** 0.52
10120 M 30.78260274000611 29.747542966117926 34.22092569288805 M 0.0 **** -1.04
10121 O 4.673176337327201 36.22050856893144 43.84741525263183 O 0.0 **** 0.0
10122 H 4.708830136261535 37.15302459383228 44.06042472391199 H 0.0 **** 0.52
10123 H 5.044817612704943 36.16099269603562 42.96731966110191 H 0.0 **** 0.52
10124 M 4.725315572780085 36.33226378889665 43.76202016455924 M 0.0 **** -1.04
10125 O 35.54896950782513 24.308988651905768 2.1801138424024487 O 0.0 **** 0.0
10126 H 35.36123772806612 25.050719469578695 1.6049446289312783 H 0.0 **** 0.52
10127 H 36.291523873108076 23.867536779854273 1.7678496313135597 H 0.0 **** 0.52
10128 M 35.61999351244521 24.347427737700393 2.053709765478466 M 0.0 **** -1.04
10129 O 41.13898902367191 48.07777417559709 35.73034711850529 O 0.0 **** 0.0
10130 H 40.831955150036435 47.29852799394767 36.19374070893508 H 0.0 **** 0.52
10131 H 41.17959585412651 48.75694713217475 36.403625155598604 H 0.0 **** 0.52
10132 M 41.104882255353225 48.064963180836045 35.875855728244005 M 0.0 **** -1.04
10133 O 2.3471879173888848 44.289135046276236 42.13256764084178 O 0.0 **** 0.0
10134 H 2.6020054609658407 44.31903147071932 43.05474081523523 H 0.0 **** 0.52
10135 H 1.3911686340631537 44.24460871471547 42.14907603982717 H 0.0 **** 0.52
10136 M 2.257424770313143 44.287262606069625 42.25273075780256 M 0.0 **** -1.04
10137 O 31.193767238863103 19.934837125764403 7.115459393565253 O 0.0 **** 0.0
10138 H 30.52043727198286 19.399223644535653 6.695969023930843 H 0.0 **** 0.52
10139 H 31.61107905061849 19.346384175704685 7.744588482323188 H 0.0 **** 0.52
10140 M 31.160993829960397 19.79094262656818 7.142295926332359 M 0.0 **** -1.04
10141 O 0.9036289335588601 25.299561448065614 32.32909428115318 O 0.0 **** 0.0
10142 H 0.7717966477511842 24.816867164696255 31.513095543535396 H 0.0 **** 0.52
10143 H 0.21105278099435354 25.960287525800993 32.33165993271109 H 0.0 **** 0.52
10144 M 0.7980946652333902 25.32235114822944 32.224964631593416 M 0.0 **** -1.04
10145 O 24.580993334433543 42.89587410108059 6.374919769650106 O 0.0 **** 0.0
10146 H 24.326751851879237 43.50960652005252 7.064065960834192 H 0.0 **** 0.52
10147 H 23.833141519156783 42.882471527262815 5.7776196244254265 H 0.0 **** 0.52
10148 M 24.45271248469797 42.97272434285238 6.3866770122154435 M 0.0 **** -1.04
10149 O 28.05397967746879 48.29300356417913 34.1231069822319 O 0.0 **** 0.0
10150 H 28.241190844458927 49.02081917800421 34.715952508568215 H 0.0 **** 0.52
10151 H 27.525432784006227 47.68872949837237 34.64437596594935 H 0.0 **** 0.52
10152 M 28.01028388334774 48.30881792731306 34.26572815070212 M 0.0 **** -1.04
10153 O 44.224528022483916 33.66344365800324 39.2679797598566 O 0.0 **** 0.0
10154 H 43.269467830023785 33.721717040693996 39.2943025878624 H 0.0 **** 0.52
10155 H 44.50359141682002 34.48113060722836 38.85598539975449 H 0.0 **** 0.52
10156 M 44.1379920523228 33.77557718547208 39.218609631725535 M 0.0 **** -1.04
10157 O 8.459453475731726 10.42504587103506 25.186926403320875 O 0.0 **** 0.0
10158 H 8.06901606429377 11.075085577541458 25.771079951627087 H 0.0 **** 0.52
10159 H 8.364211198399714 10.800899689811843 24.311773803057612 H 0.0 **** 0.52
10160 M 8.397280369712378 10.556372519566864 25.14967406934921 M 0.0 **** -1.04
10161 O 32.583388370612 4.250631124243604 25.721249455269504 O 0.0 **** 0.0
10162 H 31.714418096782584 4.418939521348205 25.356843013369325 H 0.0 **** 0.52
10163 H 32.414211735031934 3.9316989039496084 26.60775468681109 H 0.0 **** 0.52
10164 M 32.45049219195619 4.231349947976572 25.788084936246694 M 0.0 **** -1.04
10165 O 34.10451624124368 31.82154305850656 30.193560839118586 O 0.0 **** 0.0
10166 H 34.6864600811656 31.78454017632837 29.43448057862406 H 0.0 **** 0.52
10167 H 33.756974328944594 30.933216130771644 30.273049567530514 H 0.0 **** 0.52
10168 M 34.13452317587651 31.70308906001386 30.10656423627108 M 0.0 **** -1.04
10169 O 3.9659680334507343 11.901721035490652 21.43766834153854 O 0.0 **** 0.0
10170 H 3.8723383082883887 12.407384066744314 20.630347680541433 H 0.0 **** 0.52
10171 H 4.120866196235096 11.004512417417736 21.14228269956493 H 0.0 **** 0.52
10172 M 3.9738109229993515 11.851598481003762 21.296507545177633 M 0.0 **** -1.04
10173 O 41.281619439996625 22.50493754879814 32.36794294987861 O 0.0 **** 0.0
10174 H 41.34172896299006 21.898376136925137 33.105980525623885 H 0.0 **** 0.52
10175 H 41.446264560058175 21.961965767546346 31.597033537946825 H 0.0 **** 0.52
10176 M 41.31039101154584 22.357783165410183 32.36373519783079 M 0.0 **** -1.04
10177 O 2.917227513130899 21.8163416843244 3.9459517028096016 O 0.0 **** 0.0
10178 H 2.534611869540531 22.430865124322096 3.3196978629503846 H 0.0 **** 0.52
10179 H 3.7190228659864824 22.245729957210017 4.244244777436876 H 0.0 **** 0.52
10180 M 2.9708876727033138 21.949974889438764 3.9039687653763053 M 0.0 **** -1.04
10181 O 5.378691869635659 39.64253775881035 28.92842110075553 O 0.0 **** 0.0
10182 H 5.66143797856445 40.51665039757789 29.19714224479431 H 0.0 **** 0.52
10183 H 6.192802189004304 39.155043710270256 28.802712388911335 H 0.0 **** 0.52
10184 M 5.519103091090827 39.69202994153216 28.94672907600952 M 0.0 **** -1.04
10185 O 42.43211248084273 1.462704987108262 28.209759507907936 O 0.0 **** 0.0
10186 H 42.13369274112817 2.3055235118695823 28.55156614176801 H 0.0 **** 0.52
10187 H 43.21415295386918 1.6738591321507563 27.69980396987855 H 0.0 **** 0.52
10188 M 42.49402186444021 1.597626619659826 28.188234017409492 M 0.0 **** -1.04
10189 O 49.55478381654992 37.38964547296052 1.641126786366624 O 0.0 **** 0.0
10190 H 50.14550434766432 38.12605473532882 1.7991710402045693 H 0.0 **** 0.52
10191 H 48.678329077639475 37.77248753311311 1.6796812591765211 H 0.0 **** 0.52
10192 M 49.51820644011743 37.5329228853175 1.6662936276186626 M 0.0 **** -1.04
10193 O 21.82237509466024 12.675388498122572 40.60530757283464 O 0.0 **** 0.0
10194 H 20.92232528936969 12.883704878014797 40.354820487566656 H 0.0 **** 0.52
10195 H 22.357445313053177 13.30776891767632 40.12570002391994 H 0.0 **** 0.52
10196 M 21.775653541311147 12.783007449227021 40.51184628567345 M 0.0 **** -1.04
10197 O 23.370689176737965 30.467157705996083 19.709200005065025 O 0.0 **** 0.0
10198 H 22.63033016821785 30.085224686586788 20.18060827756747 H 0.0 **** 0.52
10199 H 23.837918072468057 30.97841505734683 20.369913582240788 H 0.0 **** 0.52
10200 M 23.335724823871615 30.483712776912167 19.854125947796458 M 0.0 **** -1.04
10201 O 26.306726157935817 9.939348407932812 13.908836593675233 O 0.0 **** 0.0
10202 H 25.917555574964695 9.145206989659444 13.542620936335531 H 0.0 **** 0.52
10203 H 25.6539253789343 10.2620324573522 14.530088627579659 H 0.0 **** 0.52
10204 M 26.17334075218795 9.878995782763011 13.941484188664624 M 0.0 **** -1.04
10205 O 15.114067006483372 5.092843122269208 19.304130985616208 O 0.0 **** 0.0
10206 H 16.029828095180786 5.312626580409116 19.475319937657197 H 0.0 **** 0.52
10207 H 14.95451903010437 5.405928191790224 18.413765469905112 H 0.0 **** 0.52
10208 M 15.21087143766054 5.161057008473719 19.212067441977343 M 0.0 **** -1.04
10209 O 1.5261259488072056 24.011329523352913 2.2282341884517365 O 0.0 **** 0.0
10210 H 0.9179238813645796 23.77061215546739 1.5293973923265511 H 0.0 **** 0.52
10211 H 2.024602590303374 24.7458376098119 1.870117506390109 H 0.0 **** 0.52
10212 M 1.5120796855005878 24.074541211132413 2.0929314691398773 M 0.0 **** -1.04
10213 O 11.67181075267747 4.523628662274506 18.710086139023353 O 0.0 **** 0.0
10214 H 11.36748995712822 5.3026281387185215 18.24449220386752 H 0.0 **** 0.52
10215 H 11.731386179150034 4.798805397422914 19.624939659338686 H 0.0 **** 0.52
10216 M 11.640480529595704 4.658575704466913 18.76759690353019 M 0.0 **** -1.04
10217 O 48.30291604908836 40.865154088671545 3.3739182267805887 O 0.0 **** 0.0
10218 H 48.06188131016322 41.00790395181254 2.45862890692986 H 0.0 **** 0.52
10219 H 49.199208649897614 41.19453218487249 3.440234375514528 H 0.0 **** 0.52
10220 M 48.38679779761913 40.92559245339229 3.2652385990148076 M 0.0 **** -1.04
10221 O 17.20800928123056 34.59983471433721 13.818622972916874 O 0.0 **** 0.0
10222 H 17.909893496629564 35.021728849251936 14.314195899170365 H 0.0 **** 0.52
10223 H 16.418580191936528 34.762036032789624 14.335072673389083 H 0.0 **** 0.52
10224 M 17.196802570567627 34.67460610896666 13.948174253556202 M 0.0 **** -1.04
10225 O 22.79079541796284 14.856624060857762 17.165696332275253 O 0.0 **** 0.0
10226 H 22.148849861739123 15.535676330848489 17.373116404581985 H 0.0 **** 0.52
10227 H 23.319319820917478 14.775470395939534 17.95961306659028 H 0.0 **** 0.52
10228 M 22.77627574017671 14.933162883059795 17.293879558271982 M 0.0 **** -1.04
10229 O 10.596556466472748 2.895078471089434 31.53151758457892 O 0.0 **** 0.0
10230 H 9.810464455902977 2.7665671159340732 32.062340329004826 H 0.0 **** 0.52
10231 H 10.443166491392727 3.72029388280486 31.071388596608557 H 0.0 **** 0.52
10232 M 10.476291708913676 2.984265187330635 31.540567397636465 M 0.0 **** -1.04
10233 O 3.9760117606292766 2.4827513308072344 16.5038704433769 O 0.0 **** 0.0
10234 H 3.803561195664301 3.2209567033839512 17.088285023587705 H 0.0 **** 0.52
10235 H 4.709076223281279 2.7726575722282467 15.960915701611333 H 0.0 **** 0.52
10236 M 4.047777770645332 2.614362337099166 16.50917794695165 M 0.0 **** -1.04
10237 O 23.86225450203642 22.302667027071724 41.215675204151054 O 0.0 **** 0.0
10238 H 23.085677546716777 21.77737408522696 41.40860891850715 H 0.0 **** 0.52
10239 H 23.742455161080866 23.104176284434406 41.72504700404798 H 0.0 **** 0.52
10240 M 23.747507784191146 22.338026313538272 41.30557916472736 M 0.0 **** -1.04
10241 O 3.8262478625717162 4.30714966665461 43.20656925077392 O 0.0 **** 0.0
10242 H 3.2716490718684845 5.085014352788242 43.14676991883139 H 0.0 **** 0.52
10243 H 3.3887341013835246 3.6575857456487313 42.65622653233706 H 0.0 **** 0.52
10244 M 3.699244764483356 4.3235742459644015 43.12846321013393 M 0.0 **** -1.04
10245 O 34.948271192582126 35.61103590069415 30.33692671654063 O 0.0 **** 0.0
10246 H 35.76746623814993 35.45485938608148 29.86707964783158 H 0.0 **** 0.52
10247 H 34.7747575792328 34.78945548759428 30.796412016131367 H 0.0 **** 0.52
10248 M 35.03092663243748 35.4858706717853 30.335600362322243 M 0.0 **** -1.04
10249 O 28.07197012825745 12.27629207137612 45.6176694023283 O 0.0 **** 0.0
10250 H 28.935742925404863 12.12677687271123 45.233261396217365 H 0.0 **** 0.52
10251 H 28.23221013187655 12.885510946764363 46.33836645405648 H 0.0 **** 0.52
10252 M 28.203056515270642 12.33514021879871 45.66071777829947 M 0.0 **** -1.04
10253 O 48.95540699474305 25.490409016891906 45.153466654000624 O 0.0 **** 0.0
10254 H 48.7439008770655 26.27641491202873 44.649791399377015 H 0.0 **** 0.52
10255 H 48.675437339099055 25.694585061359195 46.04574304384758 H 0.0 **** 0.52
10256 M 48.89249259740584 25.61716484715308 45.203212223607345 M 0.0 **** -1.04
10257 O 45.679424321854185 44.911858382671866 39.880240816208335 O 0.0 **** 0.0
10258 H 46.42085113397194 44.43106055423981 39.512341688706094 H 0.0 **** 0.52
10259 H 45.42049101074761 45.52007301227837 39.1879562094374 H 0.0 **** 0.52
10260 M 45.741190229008396 44.92816979544262 39.74452353242753 M 0.0 **** -1.04
10261 O 14.683107268962218 40.03447935574531 29.6815583756759 O 0.0 **** 0.0
10262 H 15.622656373653541 40.10152592538919 29.511319323239864 H 0.0 **** 0.52
10263 H 14.592192977858474 40.243032899008305 30.611326309658427 H 0.0 **** 0.52
10264 M 14.79174306303132 40.06975904246757 29.778788081058277 M 0.0 **** -1.04
10265 O 47.8849960784215 35.9795286426476 38.28704802738717 O 0.0 **** 0.0
10266 H 47.14706807246599 36.1946070855152 38.857516305864856 H 0.0 **** 0.52
10267 H 47.640276056340724 35.14779510310233 37.881388125213675 H 0.0 **** 0.52
10268 M 47.7592044469226 35.90058897797375 38.30814575977782 M 0.0 **** -1.04
10269 O 28.42619192685532 35.90419587753692 15.843628493582566 O 0.0 **** 0.0
10270 H 28.62519416917443 35.81513954647873 16.77566716259718 H 0.0 **** 0.52
10271 H 29.009426118923958 36.59939595046268 15.539058203368299 H 0.0 **** 0.52
10272 M 28.526327515805225 35.9817892043321 15.923951961681983 M 0.0 **** -1.04
10273 O 42.82861480182007 4.991946257088536 20.625323064638856 O 0.0 **** 0.0
10274 H 43.188167802906875 5.7148963884977775 21.13941724541216 H 0.0 **** 0.52
10275 H 43.43876130579585 4.2685532426248685 20.76903010773505 H 0.0 **** 0.52
10276 M 42.95274819791805 4.991889706814625 20.709529869638537 M 0.0 **** -1.04
10277 O 15.748036110457491 19.650200310695396 24.003668440413882 O 0.0 **** 0.0
10278 H 16.18352626524721 20.105699201270383 24.724152367815243 H 0.0 **** 0.52
10279 H 14.890471101618843 19.410372410723795 24.354799095156896 H 0.0 **** 0.52
10280 M 15.69400541920578 19.67780926593271 24.14084796249928 M 0.0 **** -1.04
10281 O 0.5418943244866564 28.171507250832917 13.059553411963654 O 0.0 **** 0.0
10282 H -0.25387114819795187 27.77677390729083 12.702941630773354 H 0.0 **** 0.52
10283 H 0.2516476083387675 28.622137079514403 13.852597187212824 H 0.0 **** 0.52
10284 M 0.4028717467373469 28.178662636154115 13.115421783327573 M 0.0 **** -1.04
10285 O 33.09446669940687 42.102227926133004 32.0179786872994 O 0.0 **** 0.0
10286 H 32.78784098204455 42.31543041681851 31.136641968135432 H 0.0 **** 0.52
10287 H 32.77619710945529 41.21312438568691 32.17427339349389 H 0.0 **** 0.52
10288 M 33.01447270519353 42.01570398594563 31.925163902608315 M 0.0 **** -1.04
10289 O 22.433020990593775 23.904791730643595 2.97626588772859 O 0.0 **** 0.0
10290 H 22.56157841855837 24.714200039433408 3.470795061371085 H 0.0 **** 0.52
10291 H 21.605632449795706 23.552215734191805 3.3039044760060188 H 0.0 **** 0.52
10292 M 22.343561876591806 23.96327142254026 3.0815133098617036 M 0.0 **** -1.04
10293 O 4.47663809820272 43.80966386154098 6.892460734583778 O 0.0 **** 0.0
10294 H 5.174598255416932 44.15721174919304 6.337220736947547 H 0.0 **** 0.52
10295 H 4.694754019727618 42.883983034613394 7.000947153646119 H 0.0 **** 0.52
10296 M 4.593907800395947 43.735656343369875 6.835270479822459 M 0.0 **** -1.04
10297 O 23.90335063479347 31.400669294706937 13.501819718021935 O 0.0 **** 0.0
10298 H 23.78951891347525 31.21536544082198 12.56965347624348 H 0.0 **** 0.52
10299 H 23.03373370356431 31.271018836719048 13.880220418017778 H 0.0 **** 0.52
10300 M 23.77745644264502 31.360351097198777 13.430931208156181 M 0.0 **** -1.04
10301 O 26.74328452267241 47.923331838167876 19.32290197957231 O 0.0 **** 0.0
10302 H 26.215966994832563 47.166192030065154 19.068140041521044 H 0.0 **** 0.52
10303 H 27.637991830040143 47.6854263031887 19.0797357569228 H 0.0 **** 0.52
10304 M 26.790315080763005 47.79595347562338 19.259160302114317 M 0.0 **** -1.04
10305 O 33.465351730237806 37.26437164606805 22.66767518973412 O 0.0 **** 0.0
10306 H 33.12551661339393 37.17113793587967 23.55764668909029 H 0.0 **** 0.52
10307 H 33.9801674722236 38.07101015655413 22.69064377648777 H 0.0 **** 0.52
10308 M 33.48775104348719 37.3556963439421 22.7845428954238 M 0.0 **** -1.04
10309 O 39.99098543051078 24.262552633108797 36.40085402257341 O 0.0 **** 0.0
10310 H 39.90611973847628 23.970152340831724 35.49336968552124 H 0.0 **** 0.52
10311 H 39.361768798839044 24.979315015260607 36.48188663868553 H 0.0 **** 0.52
10312 M 39.899573397002726 24.316875815877715 36.295058108470926 M 0.0 **** -1.04
10313 O 47.21375454669865 42.45899150476628 6.782951271708266 O 0.0 **** 0.0
10314 H 46.75246406544023 42.77251665433628 7.560859366490717 H 0.0 **** 0.52
10315 H 46.58905607801582 41.875347745228744 6.352439617631643 H 0.0 **** 0.52
10316 M 47.074734683112226 42.42441261404663 6.8274226662220565 M 0.0 **** -1.04
10317 O 14.938933987072808 1.0831669508396118 5.8276644137689 O 0.0 **** 0.0
10318 H 15.76518589424616 0.6832849025328329 6.09901354648251 H 0.0 **** 0.52
10319 H 14.794111738812447 1.7872800793311612 6.459708807248283 H 0.0 **** 0.52
10320 M 15.026165997977525 1.1221121137782717 5.943310144853967 M 0.0 **** -1.04
10321 O 49.11724411667727 43.36197009947708 36.329613554839014 O 0.0 **** 0.0
10322 H 49.74228999945633 42.69781916765028 36.620215944795135 H 0.0 **** 0.52
10323 H 49.657924672307125 44.1208676693903 36.11060195472552 H 0.0 **** 0.52
10324 M 49.2664716604133 43.374099010967775 36.338777800282855 M 0.0 **** -1.04
10325 O 19.694224358393996 13.782448491756497 44.48679078306674 O 0.0 **** 0.0
10326 H 19.21098642198554 13.083132768151202 44.92686823080987 H 0.0 **** 0.52
10327 H 20.40597779914787 13.332602548970812 44.031516259904855 H 0.0 **** 0.52
10328 M 19.723476912720614 13.635341023150112 44.48484562996441 M 0.0 **** -1.04
10329 O 21.887497404664195 13.712795761560653 3.571730225140918 O 0.0 **** 0.0
10330 H 21.262882219574756 13.794073319539972 2.8509814185494164 H 0.0 **** 0.52
10331 H 22.0012964980621 14.60736361004348 3.8927096302389685 H 0.0 **** 0.52
10332 M 21.822105966648312 13.837716476634071 3.520554859575313 M 0.0 **** -1.04
10333 O 8.012044926209498 28.918545352131304 2.167685168363301 O 0.0 **** 0.0
10334 H 8.788527222315366 28.933361939246225 2.7272242929917065 H 0.0 **** 0.52
10335 H 8.05059036862231 28.070162575216216 1.7261096373025937 H 0.0 **** 0.52
10336 M 8.116378368938882 28.81183824498933 2.182785862208741 M 0.0 **** -1.04
10337 O 22.174323134676495 20.67076956957904 1.6492576671819676 O 0.0 **** 0.0
10338 H 23.06658913259691 20.572990011968358 1.9817188434303683 H 0.0 **** 0.52
10339 H 22.284997183213232 21.009789604217865 0.7609765860168347 H 0.0 **** 0.52
10340 M 22.30271234959015 20.701651136157654 1.5781054738109679 M 0.0 **** -1.04
10341 O 21.886813936428887 16.826897193838438 7.999556256054097 O 0.0 **** 0.0
10342 H 22.730653375897948 16.56226053988838 7.633319201224987 H 0.0 **** 0.52
10343 H 21.802285596481802 16.31351120400346 8.802998259539855 H 0.0 **** 0.52
10344 M 21.98401502454378 16.72730079912335 8.05552431217581 M 0.0 **** -1.04
10345 O 10.4673940373578 1.1987094252836812 7.885868747846914 O 0.0 **** 0.0
10346 H 9.567364122142855 1.4015985966559512 8.140840950103453 H 0.0 **** 0.52
10347 H 11.008287590774593 1.7158167439265526 8.482747527754213 H 0.0 **** 0.52
10348 M 10.421420194772224 1.290878509593675 7.99491653884408 M 0.0 **** -1.04
10349 O 13.249494555446574 3.609792472264445 30.329924473906495 O 0.0 **** 0.0
10350 H 13.241871469405368 4.014674907787864 29.462605864328054 H 0.0 **** 0.52
10351 H 12.333332432173073 3.3915705631057875 30.500966441307423 H 0.0 **** 0.52
10352 M 13.131238492381271 3.63368788534855 30.240792455945265 M 0.0 **** -1.04
10353 O 9.97660069222917 43.10267516707853 8.99501577603166 O 0.0 **** 0.0
10354 H 9.071119825405745 42.85102515320547 9.176692573061848 H 0.0 **** 0.52
10355 H 10.004652317397728 44.04282801345347 9.17265070253902 H 0.0 **** 0.52
10356 M 9.86427875122159 43.190811993151925 9.041012395472576 M 0.0 **** -1.04
10357 O 12.850867726651071 1.953582505503778 24.496174204870172 O 0.0 **** 0.0
10358 H 12.942930454530718 2.904852143102557 24.44289227694128 H 0.0 **** 0.52
10359 H 13.510624385578012 1.6840362326007146 25.135153792946653 H 0.0 **** 0.52
10360 M 12.947110156457592 2.040851503549943 24.571150315965298 M 0.0 **** -1.04
10361 O 22.60819875656852 28.884017396494993 23.146405337785264 O 0.0 **** 0.0
10362 H 23.276991527988194 29.48469112903513 23.47524653091442 H 0.0 **** 0.52
10363 H 22.5242126369176 28.22030998697997 23.83099842767688 H 0.0 **** 0.52
10364 M 22.683061183968746 28.875947926303375 23.276137391864378 M 0.0 **** -1.04
10365 O 10.20810622315508 48.30343380036814 22.27348160829709 O 0.0 **** 0.0
10366 H 10.158069986482543 47.71236296542504 21.522241906062902 H 0.0 **** 0.52
10367 H 11.142043429946053 48.35445432979939 22.47691815083462 H 0.0 **** 0.52
10368 M 10.321256803479612 48.234299861081226 22.203355303440176 M 0.0 **** -1.04
10369 O 38.58311680741964 38.10836781926255 37.24880104784807 O 0.0 **** 0.0
10370 H 38.700624495516266 37.23434856260294 36.87663044143506 H 0.0 **** 0.52
10371 H 37.8468547043234 38.014813573075756 37.853280874538065 H 0.0 **** 0.52
10372 M 38.50390849282007 37.98450628670038 37.27853930668507 M 0.0 **** -1.04
10373 O 32.63173908608778 4.579299666178368 41.94612202865656 O 0.0 **** 0.0
10374 H 32.542950078281166 4.416703927677933 41.00702239879399 H 0.0 **** 0.52
10375 H 33.19877885530487 5.348290677698887 42.00398284638908 H 0.0 **** 0.52
10376 M 32.692960427960266 4.656925367644303 41.83331229790042 M 0.0 **** -1.04
10377 O 34.43113812648566 33.2686330339018 1.2354010938784086 O 0.0 **** 0.0
10378 H 33.817646352062425 32.81461487125983 0.6577125652679356 H 0.0 **** 0.52
10379 H 34.9519309746371 32.569033407782214 1.6298145592184454 H 0.0 **** 0.52
10380 M 34.41927198962418 33.12095580271757 1.2119398157644525 M 0.0 **** -1.04
10381 O 19.36271495116655 47.97867756812643 32.85601174878954 O 0.0 **** 0.0
10382 H 19.393963373464768 48.25633148057431 33.77152330737328 H 0.0 **** 0.52
10383 H 19.064017714277117 48.75369531430048 32.38024333790134 H 0.0 **** 0.52
10384 M 19.328477604118454 48.11343290260301 32.91230463770296 M 0.0 **** -1.04
10385 O 2.3585938398516078 27.205504491163502 26.2170042372779 O 0.0 **** 0.0
10386 H 2.8686015937291955 28.014742319612758 26.18157967176387 H 0.0 **** 0.52
10387 H 1.9486050740963918 27.21788205021445 27.081864958914537 H 0.0 **** 0.52
10388 M 2.3713973834386763 27.31068156423788 26.323182075290976 M 0.0 **** -1.04
10389 O 10.091745364722886 5.229517136058028 30.220091806265458 O 0.0 **** 0.0
10390 H 9.749202383266828 5.60263967664514 31.03229413031474 H 0.0 **** 0.52
10391 H 9.342540124377308 5.2227841655778064 29.624377365861932 H 0.0 **** 0.52
10392 M 9.951987226701432 5.27641928383904 30.247804829347217 M 0.0 **** -1.04
10393 O 35.592789260358195 14.945023805390079 1.9387522239217674 O 0.0 **** 0.0
10394 H 34.85794245362429 15.065675824587904 1.3373609061279055 H 0.0 **** 0.52
10395 H 36.370803324867666 15.060007905178749 1.3931326382261986 H 0.0 **** 0.52
10396 M 35.59831473771017 14.975187674029131 1.7919205099129556 M 0.0 **** -1.04
10397 O 35.519158362285026 39.49939254421782 26.709613042729842 O 0.0 **** 0.0
10398 H 34.57346925525752 39.35141933560959 26.711752508281787 H 0.0 **** 0.52
10399 H 35.89366963772179 38.66230784029155 26.98395051085176 H 0.0 **** 0.52
10400 M 35.4460410110332 39.373292316125564 26.74500534495792 M 0.0 **** -1.04
10401 O 48.12146776510251 10.617037555855756 20.418819375921803 O 0.0 **** 0.0
10402 H 48.299449906238785 9.75803605640455 20.801790683644953 H 0.0 **** 0.52
10403 H 47.47336459964082 10.445575015951501 19.73559891137381 H 0.0 **** 0.52
10404 M 48.06128703957172 10.485125431056002 20.380383904929776 M 0.0 **** -1.04
10405 O 40.2545162573746 41.507306326019815 45.73859300715369 O 0.0 **** 0.0
10406 H 39.70781826977041 40.94563504720205 46.288023929037294 H 0.0 **** 0.52
10407 H 40.109594096794915 41.18660023110023 44.84843914755724 H 0.0 **** 0.52
10408 M 40.16597979600837 41.3943507197314 45.694976155619386 M 0.0 **** -1.04
10409 O 13.11187734908386 11.492592974302397 10.857479968636383 O 0.0 **** 0.0
10410 H 13.342368157580106 10.99387528431484 11.641306405366798 H 0.0 **** 0.52
10411 H 12.409881523271801 12.077368915079774 11.14290610600758 H 0.0 **** 0.52
10412 M 13.051519288284988 11.503609376632646 10.994357999825759 M 0.0 **** -1.04
10413 O 35.81710934359481 4.553203215036774 28.789204160564918 O 0.0 **** 0.0
10414 H 36.681003782161994 4.157217604402753 28.903705784367663 H 0.0 **** 0.52
10415 H 35.87594303168777 5.393256456234148 29.244262918233787 H 0.0 **** 0.52
10416 M 35.93522962801865 4.610049574557195 28.862115000403097 M 0.0 **** -1.04
10417 O 14.69199976426858 1.8845736753808353 32.479302264030295 O 0.0 **** 0.0
10418 H 14.038635224053287 2.3189361624042633 31.93096615137877 H 0.0 **** 0.52
10419 H 14.180380881397554 1.4362485798983684 33.152712489587614 H 0.0 **** 0.52
10420 M 14.54286735762706 1.882786571958036 32.49531361889751 M 0.0 **** -1.04
10421 O 4.82537048241899 24.205044875387177 12.444760753987731 O 0.0 **** 0.0
10422 H 4.674158919803084 24.433929291841757 13.361808525308819 H 0.0 **** 0.52
10423 H 4.8012516813629205 25.042232052670634 11.98133487837736 H 0.0 **** 0.52
10424 M 4.802925716043056 24.341515578721584 12.502830356085163 M 0.0 **** -1.04
10425 O 34.55376873352934 37.57722118413619 48.33681945092428 O 0.0 **** 0.0
10426 H 34.97668378280203 37.06240786027784 47.649549772916465 H 0.0 **** 0.52
10427 H 33.79188504882458 37.056960068173 48.5919494960656 H 0.0 **** 0.52
10428 M 34.510376383123486 37.44471809482894 48.28150018451284 M 0.0 **** -1.04
10429 O 29.960640432433557 9.17413759775939 25.4189960075566 O 0.0 **** 0.0
10430 H 29.884696306451893 8.358172211170064 24.9243623440818 H 0.0 **** 0.52
10431 H 30.89797990626433 9.368104643011812 25.41952644154256 H 0.0 **** 0.52
10432 M 30.070909748834037 9.094514115098725 25.355744767928087 M 0.0 **** -1.04
10433 O 18.093011558089984 9.194425132595278 46.74959780974141 O 0.0 **** 0.0
10434 H 18.88866349576537 9.094742519361525 46.22688368354443 H 0.0 **** 0.52
10435 H 18.31889692051302 8.825157762868294 47.60332261786667 H 0.0 **** 0.52
10436 M 18.223780838608924 9.134393439222087 46.79197128372362 M 0.0 **** -1.04
10437 O 1.967932760338402 18.651047829707704 42.39826572501423 O 0.0 **** 0.0
10438 H 2.774123099593359 19.162080699019665 42.4698903595893 H 0.0 **** 0.52
10439 H 2.1239123855155526 18.058532922273898 41.662857863560774 H 0.0 **** 0.52
10440 M 2.0911024771344713 18.640616670115904 42.313293556353386 M 0.0 **** -1.04
10441 O 27.22820021368359 19.891936004572006 2.2345047011639054 O 0.0 **** 0.0
10442 H 27.877169639942192 19.658275914290982 1.5708259688684016 H 0.0 **** 0.52
10443 H 26.570721623932684 20.399686844858625 1.758963689575721 H 0.0 **** 0.52
10444 M 27.22711075331337 19.927023475406507 2.0886706134184054 M 0.0 **** -1.04
10445 O 39.551409724003186 10.232909283833934 24.43053019284369 O 0.0 **** 0.0
10446 H 39.71756397806502 10.230311494898146 23.487866550984087 H 0.0 **** 0.52
10447 H 40.350087547240214 10.595257277634062 24.81399617184913 H 0.0 **** 0.52
10448 M 39.67491997624549 10.278962265118324 24.358945250908484 M 0.0 **** -1.04
10449 O 17.002336488290013 13.194220003864935 42.12634613269414 O 0.0 **** 0.0
10450 H 17.135614272273045 13.931719213631077 42.72179600033781 H 0.0 **** 0.52
10451 H 17.72653791045758 13.254839469756568 41.50338037597595 H 0.0 **** 0.52
10452 M 17.11210457589715 13.296388820551016 42.12282397298258 M 0.0 **** -1.04
10453 O 26.444715843329963 5.20315992172245 21.855679580548 O 0.0 **** 0.0
10454 H 26.56055455429817 4.256674037753403 21.93918950957692 H 0.0 **** 0.52
10455 H 26.76705686850753 5.407873094453486 20.977945889265897 H 0.0 **** 0.52
10456 M 26.50080865130267 5.108203834856145 21.75400859727955 M 0.0 **** -1.04
10457 O 31.716549699776223 34.2905351225583 36.101709976810156 O 0.0 **** 0.0
10458 H 31.652020830202016 33.33990055509981 36.19313948127157 H 0.0 **** 0.52
10459 H 32.58258433962845 34.43679580544268 35.721157928033875 H 0.0 **** 0.52
10460 M 31.8191528471257 34.18756469179062 36.064698992352646 M 0.0 **** -1.04
10461 O 48.31791560323003 30.345716364116633 26.841605249829687 O 0.0 **** 0.0
10462 H 48.2586714317374 31.089689951680228 27.4409569694909 H 0.0 **** 0.52
10463 H 48.847929296724324 30.66685199233628 26.112094585451533 H 0.0 **** 0.52
10464 M 48.378179860535425 30.482063842924614 26.824942805377198 M 0.0 **** -1.04
10465 O 10.421353803992867 11.987351928429355 40.34939601676436 O 0.0 **** 0.0
10466 H 9.703393589100735 11.407942206561955 40.09435651847751 H 0.0 **** 0.52
10467 H 9.988867931235934 12.780874075114305 40.66484297056326 H 0.0 **** 0.52
10468 M 10.274082296980101 12.01476064495138 40.35712930104725 M 0.0 **** -1.04
10469 O 31.25249052746787 2.8010406518266833 18.726571228780408 O 0.0 **** 0.0
10470 H 31.21841230468429 3.5196366037653353 18.095155164110487 H 0.0 **** 0.52
10471 H 32.0006057693969 2.272577539290568 18.448579514243686 H 0.0 **** 0.52
10472 M 31.34389645462595 2.8253803332864456 18.610155745309314 M 0.0 **** -1.04
10473 O 2.039427649759372 8.940429775507234 35.08835898752574 O 0.0 **** 0.0
10474 H 2.7312309184929084 8.956797676981644 34.42702073384488 H 0.0 **** 0.52
10475 H 1.6237617166872576 8.085064793601184 34.97972761932167 H 0.0 **** 0.52
10476 M 2.0747766375103773 8.833027604637664 34.98979327101904 M 0.0 **** -1.04
10477 O 26.458677900735378 7.315429631728854 28.841167413847682 O 0.0 **** 0.0
10478 H 25.98288762614875 6.9701808276633415 29.596584959948544 H 0.0 **** 0.52
10479 H 26.748261429503533 6.53778275901405 28.364055422315303 H 0.0 **** 0.52
10480 M 26.434840856579754 7.171685285261049 28.876793490441457 M 0.0 **** -1.04
10481 O 46.76627287974155 40.308156846391256 11.151774213448384 O 0.0 **** 0.0
10482 H 46.981239929556146 40.76243073128043 10.3371249784839 H 0.0 **** 0.52
10483 H 46.60237117324174 39.40333483267368 10.885951502994503 H 0.0 **** 0.52
10484 M 46.77280952389175 40.25048029609633 11.013460458227359 M 0.0 **** -1.04
10485 O 10.71936869729624 4.572926352432901 40.818918335114915 O 0.0 **** 0.0
10486 H 10.362995409690278 5.436134092482284 41.02891734771927 H 0.0 **** 0.52
10487 H 10.193121793332978 3.963599878222155 41.336618809580635 H 0.0 **** 0.52
10488 M 10.60638239553787 4.605426383205106 40.91207289642459 M 0.0 **** -1.04
10489 O 0.7912183044645733 37.53887638649241 23.973371963612447 O 0.0 **** 0.0
10490 H 1.345680222384249 38.13253313670602 23.467038071346412 H 0.0 **** 0.52
10491 H 1.322183873004671 37.305471672636884 24.734835459274283 H 0.0 **** 0.52
10492 M 0.9301668975595673 37.58499335888935 24.006031868861097 M 0.0 **** -1.04
10493 O 10.289764908912385 39.19047642425014 41.13457061563523 O 0.0 **** 0.0
10494 H 10.710495925659874 39.621342144433555 41.87859202794166 H 0.0 **** 0.52
10495 H 10.989318903625197 38.68143755324309 40.72501976331381 H 0.0 **** 0.52
10496 M 10.433175587779552 39.18046889165872 41.17738694364558 M 0.0 **** -1.04
10497 O 19.712642988947508 33.436099918353726 39.43030517153904 O 0.0 **** 0.0
10498 H 19.460942366063268 34.35847313252227 39.476163630128916 H 0.0 **** 0.52
10499 H 19.136678729864457 32.99870290305399 40.05734500269888 H 0.0 **** 0.52
10500 M 19.606690734662106 33.49818294785138 39.5164449181154 M 0.0 **** -1.04
10501 O 24.07536830791244 39.71376803636015 24.513832626858054 O 0.0 **** 0.0
10502 H 23.509524391293866 40.187828022292116 23.90447418913513 H 0.0 **** 0.52
10503 H 23.96296538432898 38.79274142253089 24.278664001652043 H 0.0 **** 0.52
10504 M 23.988543836090415 39.656550669638655 24.405722186098206 M 0.0 **** -1.04
10505 O 29.155018067052087 0.9073136735504167 29.53536009890685 O 0.0 **** 0.0
10506 H 29.185769271116413 0.7468411934787502 28.592210153249237 H 0.0 **** 0.52
10507 H 29.65764787605794 0.1880025790401194 29.91770008894039 H 0.0 **** 0.52
10508 M 29.22329733139843 0.7946906013381126 29.46356902601612 M 0.0 **** -1.04
10509 O 19.832817504267805 45.99927804889573 4.290690185159413 O 0.0 **** 0.0
10510 H 19.640963121147873 46.89584300905986 4.565630695680248 H 0.0 **** 0.52
10511 H 20.632885560908875 45.76936536194037 4.763194149366512 H 0.0 **** 0.52
10512 M 19.910676631493047 46.08461769010168 4.386372725513226 M 0.0 **** -1.04
10513 O 7.913032144487177 25.94699722834927 22.010816512645352 O 0.0 **** 0.0
10514 H 7.8283488502878384 26.900407106940634 22.002686592913005 H 0.0 **** 0.52
10515 H 7.981992222922699 25.7043053794603 21.087467658576145 H 0.0 **** 0.52
10516 M 7.911019312868326 26.037977798767695 21.89157521298282 M 0.0 **** -1.04
10517 O 21.204813519192633 22.876221516407213 46.694148790608146 O 0.0 **** 0.0
10518 H 20.94345878825403 23.41403745834073 47.44159539522766 H 0.0 **** 0.52
10519 H 20.406716855009872 22.411867079062503 46.44186688192126 H 0.0 **** 0.52
10520 M 21.06919039554387 22.885625397193408 46.75753641946358 M 0.0 **** -1.04
10521 O 28.498244185413306 42.59538275399698 33.8177195104604 O 0.0 **** 0.0
10522 H 27.798868213513103 43.122928685865475 33.43197683548796 H 0.0 **** 0.52
10523 H 28.9369755372893 42.19335548313017 33.0679742776755 H 0.0 **** 0.52
10524 M 28.464878039501208 42.6114505546404 33.67236226819342 M 0.0 **** -1.04
10525 O 15.140725073942162 46.051513886123516 47.71133162979442 O 0.0 **** 0.0
10526 H 14.669302923990212 46.80229348344729 47.35033137713839 H 0.0 **** 0.52
10527 H 15.363406697598448 46.314726172225996 48.604282352634826 H 0.0 **** 0.52
10528 M 15.108882762867864 46.181317636729 47.779428069431084 M 0.0 **** -1.04
10529 O 17.526942206808627 11.551087382714918 15.446574389828314 O 0.0 **** 0.0
10530 H 17.363665986284992 12.444639011361396 15.748458952556899 H 0.0 **** 0.52
10531 H 18.14926710447544 11.193718044100514 16.079999539980538 H 0.0 **** 0.52
10532 M 17.5857068237231 11.619725685110346 15.566305441975079 M 0.0 **** -1.04
10533 O 15.171316308722254 18.009034937132718 19.22601614060826 O 0.0 **** 0.0
10534 H 15.768484714991658 17.329453730211 19.538725295272275 H 0.0 **** 0.52
10535 H 15.265604459395561 18.721068442133845 19.85874567841224 H 0.0 **** 0.52
10536 M 15.259831255953543 18.013190170107254 19.347043557008732 M 0.0 **** -1.04
10537 O 40.78003008555821 16.4760844396868 33.490417487862594 O 0.0 **** 0.0
10538 H 39.90607498472394 16.326080704926557 33.129960080134886 H 0.0 **** 0.52
10539 H 40.83406017406429 15.88609996033716 34.24223358957336 H 0.0 **** 0.52
10540 M 40.67506941940962 16.38135699539152 33.54051646196315 M 0.0 **** -1.04
10541 O 14.916987646198907 9.42232572601382 3.4035854914547454 O 0.0 **** 0.0
10542 H 15.200969364498743 9.676354193967928 2.525489633037168 H 0.0 **** 0.52
10543 H 14.209267525168283 8.795227913211214 3.254898230940144 H 0.0 **** 0.52
10544 M 14.862743797736837 9.374568294385645 3.2721452128895394 M 0.0 **** -1.04
10545 O 42.643616375467126 49.24018697105385 15.748872895415174 O 0.0 **** 0.0
10546 H 42.009798001126846 48.548606950678874 15.558559700094733 H 0.0 **** 0.52
10547 H 42.18472275432382 49.827696240821 16.34927161720007 H 0.0 **** 0.52
10548 M 42.503735677393976 49.226864667863644 15.801368933192173 M 0.0 **** -1.04
10549 O 37.66539629134067 17.57927110934571 25.37726093353802 O 0.0 **** 0.0
10550 H 37.821223379938694 18.37616559835027 25.884118422940315 H 0.0 **** 0.52
10551 H 37.74928818165568 17.855137089647148 24.464524233264793 H 0.0 **** 0.52
10552 M 37.69608303405542 17.716597501820818 25.32530316205645 M 0.0 **** -1.04
10553 O 10.91872673860432 6.282614796897134 14.301465544858694 O 0.0 **** 0.0
10554 H 11.150547445846236 6.5530102038637565 15.189932969725682 H 0.0 **** 0.52
10555 H 10.827592003831725 7.103102145861384 13.816982281486146 H 0.0 **** 0.52
10556 M 10.936736414446436 6.422261640865376 14.353179773817084 M 0.0 **** -1.04
10557 O 44.44538732102099 42.10508491431187 36.312751538484434 O 0.0 **** 0.0
10558 H 44.358950605954256 41.17740046844449 36.53220569028193 H 0.0 **** 0.52
10559 H 45.19039825847857 42.14138288051691 35.71286056665713 H 0.0 **** 0.52
10560 M 44.529693211737104 41.99097648884011 36.26405058587653 M 0.0 **** -1.04
10561 O 29.7321969899277 28.38648094057571 13.409481267517258 O 0.0 **** 0.0
10562 H 29.27890896957968 29.226706148494728 13.340343775189334 H 0.0 **** 0.52
10563 H 29.446234476337946 27.895426576438272 12.63920921509033 H 0.0 **** 0.52
10564 M 29.637563324564955 28.431178986304516 13.302025929129453 M 0.0 **** -1.04
10565 O 19.162959966362866 15.294789299597781 26.909231976005177 O 0.0 **** 0.0
10566 H 19.42452186573998 14.374075607572223 26.91925340905805 H 0.0 **** 0.52
10567 H 19.608444055179298 15.67906283841397 27.664285841756893 H 0.0 **** 0.52
10568 M 19.253470780787893 15.226118910484168 27.00717120685838 M 0.0 **** -1.04
10569 O 22.81616218757411 19.65055272871599 17.386896666380466 O 0.0 **** 0.0
10570 H 23.66263838408029 19.474199979362602 17.797513498208602 H 0.0 **** 0.52
10571 H 22.943460324025978 19.420930210049576 16.46641005155881 H 0.0 **** 0.52
10572 M 22.940817823354692 19.598582904219857 17.321626765047824 M 0.0 **** -1.04
10573 O 2.812946838618634 4.919588475050285 11.793510005381869 O 0.0 **** 0.0
10574 H 3.6485500044209926 5.165929893875607 12.190136370852933 H 0.0 **** 0.52
10575 H 2.1577302203393307 5.409396981488891 12.290508580205383 H 0.0 **** 0.52
10576 M 2.8360390383585705 5.013824818623287 11.907905531068735 M 0.0 **** -1.04
10577 O 1.699224507714284 6.907454037349936 48.45370671999856 O 0.0 **** 0.0
10578 H 1.9343714129225518 7.054102017981748 49.369910147792794 H 0.0 **** 0.52
10579 H 2.4365874629594515 6.415482699013552 48.09247664286357 H 0.0 **** 0.52
10580 M 1.8237174107068128 6.863248095618445 48.52475016287074 M 0.0 **** -1.04
10581 O 21.180038491139797 19.558674990430895 20.472086624293937 O 0.0 **** 0.0
10582 H 20.969223019729043 20.293584105743506 19.896157028799532 H 0.0 **** 0.52
10583 H 21.01609943761801 19.89077439558427 21.354732384862242 H 0.0 **** 0.52
10584 M 21.132064930613723 19.69526546868323 20.51135050631356 M 0.0 **** -1.04
10585 O 5.434549061072232 4.617030829502283 12.898189024638043 O 0.0 **** 0.0
10586 H 6.176497617219155 5.1533724656482 12.618765070961317 H 0.0 **** 0.52
10587 H 5.563378237770223 3.779038574100288 12.453890854307431 H 0.0 **** 0.52
10588 M 5.546019427884005 4.578415864104852 12.805544206843322 M 0.0 **** -1.04
10589 O 30.50090053364863 29.164913273608413 39.383800673910294 O 0.0 **** 0.0
10590 H 30.42004585569683 29.79217947529252 40.10229011683242 H 0.0 **** 0.52
10591 H 31.42797272950449 29.18962372363966 39.14683102205652 H 0.0 **** 0.52
10592 M 30.609227127153606 29.248374324157012 39.4454407861743 M 0.0 **** -1.04
10593 O 30.141949699747812 8.247780575363187 49.3464854261432 O 0.0 **** 0.0
10594 H 29.53414752034206 7.513610833291203 49.25816789538238 H 0.0 **** 0.52
10595 H 29.579527916171344 9.021127027347525 49.389424663945285 H 0.0 **** 0.52
10596 M 29.992146419057207 8.252795830226155 49.34067693348167 M 0.0 **** -1.04
10597 O 17.967179554656653 42.54751588718836 30.53351851557809 O 0.0 **** 0.0
10598 H 17.471338411904284 42.805476111564815 29.756454715355957 H 0.0 **** 0.52
10599 H 17.31111842100563 42.48784418207634 31.22796234849157 H 0.0 **** 0.52
10600 M 17.819721212317276 42.57289910189863 30.522942221684637 M 0.0 **** -1.04
10601 O 31.333064333268865 26.469226920562438 41.545936284930995 O 0.0 **** 0.0
10602 H 30.721527063872088 27.12315058649084 41.20735848061671 H 0.0 **** 0.52
10603 H 30.853935542390133 25.642288615421954 41.49267922159422 H 0.0 **** 0.52
10604 M 31.193445142655747 26.44707909194417 41.49577640022191 M 0.0 **** -1.04
10605 O 1.8687373226215485 0.7675791759604517 49.97785837946765 O 0.0 **** 0.0
10606 H 1.6461391859662697 1.625405699355536 50.33953809770979 H 0.0 **** 0.52
10607 H 2.2509193429815753 0.28885045443060714 50.7133754428089 H 0.0 **** 0.52
10608 M 1.8891662218345573 0.816108266214896 50.11831380667865 M 0.0 **** -1.04
10609 O 46.49701359765567 10.140874924514758 5.02910598871015 O 0.0 **** 0.0
10610 H 46.05754260456491 10.337820339283995 4.201877265502702 H 0.0 **** 0.52
10611 H 45.78420457763391 10.012667018190387 5.65496242115114 H 0.0 **** 0.52
10612 M 46.3495068482541 10.149674849705075 5.0033279057397095 M 0.0 **** -1.04
10613 O 42.71282468251402 7.211056191276545 48.55109368719137 O 0.0 **** 0.0
10614 H 41.896797426806295 6.738995747746672 48.71688713452655 H 0.0 **** 0.52
10615 H 42.47925126330144 8.13452907182799 48.645274481024934 H 0.0 **** 0.52
10616 M 42.57846292096746 7.268843011808104 48.58437338142044 M 0.0 **** -1.04
10617 O 13.117043528637303 26.38211839042457 24.241697315820588 O 0.0 **** 0.0
10618 H 12.300736238653151 26.427259038005648 23.7438680062694 H 0.0 **** 0.52
10619 H 13.371959098058653 25.46036183018748 24.20156243398437 H 0.0 **** 0.52
10620 M 13.045177718500398 26.26990012076913 24.172831370834018 M 0.0 **** -1.04
10621 O 41.105917388690706 11.929918404556275 0.3190429963732057 O 0.0 **** 0.0
10622 H 40.307795472256515 12.308162630200243 0.6880407903495322 H 0.0 **** 0.52
10623 H 41.51253976631603 11.466367144875733 1.051168060887389 H 0.0 **** 0.52
10624 M 41.055800564509234 11.918997941370542 0.4600008692280836 M 0.0 **** -1.04
10625 O 0.4121321588894882 45.70736490455485 35.96244619488004 O 0.0 **** 0.0
10626 H 0.09924751141632271 46.1801126466216 36.733706202086154 H 0.0 **** 0.52
10627 H 0.3676120623281893 46.34880627871363 35.25336257654883 H 0.0 **** 0.52
10628 M 0.36637986682705187 45.84999536460859 35.97040570987145 M 0.0 **** -1.04
10629 O 6.938798302005025 43.37067187612266 37.75254992356405 O 0.0 **** 0.0
10630 H 7.829285831243201 43.543883812088445 38.05793308746291 H 0.0 **** 0.52
10631 H 6.666250498314114 44.186399384916186 37.33238878688031 H 0.0 **** 0.52
10632 M 7.017902715228903 43.49726873359292 37.73785699270685 M 0.0 **** -1.04
10633 O 33.374639136758304 0.9693446212321177 5.538812293545288 O 0.0 **** 0.0
10634 H 33.47787646453165 1.6372973370413177 6.216609991270543 H 0.0 **** 0.52
10635 H 33.280789265673974 1.465250265861286 4.725486602796066 H 0.0 **** 0.52
10636 M 33.37584081595208 1.1183326840664023 5.521463276224114 M 0.0 **** -1.04
10637 O 1.2797323473615645 21.5274494405708 34.02124633589739 O 0.0 **** 0.0
10638 H 2.09814077571695 21.061625586231585 34.19283978926365 H 0.0 **** 0.52
10639 H 0.6301595747696931 21.078726134585754 34.56247875468703 H 0.0 **** 0.52
10640 M 1.3013456345312349 21.410375716730627 34.11249719365163 M 0.0 **** -1.04
10641 O 11.225688025196876 48.3396197865146 8.326962592346248 O 0.0 **** 0.0
10642 H 10.819138529844885 49.14316340012953 8.002519161947626 H 0.0 **** 0.52
10643 H 10.878850209933615 47.64981572318733 7.76118639898819 H 0.0 **** 0.52
10644 M 11.129244879951507 48.35418003820268 8.213003097002664 M 0.0 **** -1.04
10645 O 45.21816950361798 7.12181490978697 8.117451149287358 O 0.0 **** 0.0
10646 H 45.93176620948211 6.517246803758383 8.321181344737013 H 0.0 **** 0.52
10647 H 44.5271031189822 6.895893633392227 8.74003853314581 H 0.0 **** 0.52
10648 M 45.22105360975906 7.015501610893054 8.22323030195962 M 0.0 **** -1.04
10649 O 34.43354979962898 6.31039664329802 19.48912552479705 O 0.0 **** 0.0
10650 H 33.77636865368198 5.966305415886794 20.09405813900847 H 0.0 **** 0.52
10651 H 35.25740637854407 6.255892078441676 19.973396138609605 H 0.0 **** 0.52
10652 M 34.45488715074858 6.259370794039107 19.628557159480906 M 0.0 **** -1.04
10653 O 6.770923239673493 19.46093298201984 48.46852024037684 O 0.0 **** 0.0
10654 H 7.623126178243368 19.258114700533955 48.85432445713819 H 0.0 **** 0.52
10655 H 6.137861146585593 19.040209660812057 49.05028748384875 H 0.0 **** 0.52
10656 M 6.798976100360463 19.38111182184959 48.59238084598804 M 0.0 **** -1.04
10657 O 46.01149579615593 41.50938459570102 38.67355927328648 O 0.0 **** 0.0
10658 H 45.63743369039674 41.684834720947876 37.81012268308462 H 0.0 **** 0.52
10659 H 45.26651524173724 41.55934161606681 39.27250582085707 H 0.0 **** 0.52
10660 M 45.86824425200306 41.53823897788567 38.63970129293401 M 0.0 **** -1.04
10661 O 15.524377079855581 9.852774945441613 0.6668572557837109 O 0.0 **** 0.0
10662 H 14.996062857423485 10.609543164195113 0.4130567775307483 H 0.0 **** 0.52
10663 H 15.400812279911586 9.224378243673872 -0.04453513953833976 H 0.0 **** 0.52
10664 M 15.440927909870705 9.869207663024476 0.5433010522055568 M 0.0 **** -1.04
10665 O 14.926236251994045 41.349368406113086 0.4348182190259777 O 0.0 **** 0.0
10666 H 15.307397973183967 40.738412544182346 1.065433750644054 H 0.0 **** 0.52
10667 H 15.516332483946824 42.10298027370647 0.4439875934594255 H 0.0 **** 0.52
10668 M 15.050569376459475 41.36763013443011 0.5167179177466537 M 0.0 **** -1.04
10669 O 35.55314193323372 42.347011566937596 27.37384667622735 O 0.0 **** 0.0
10670 H 35.1526743495906 42.42636785894559 26.508077233096714 H 0.0 **** 0.52
10671 H 35.261010048853265 41.4943657525337 27.696155365729812 H 0.0 **** 0.52
10672 M 35.464479958556865 42.248020769165436 27.30427679385839 M 0.0 **** -1.04
10673 O 25.988520427768943 38.097484933633496 18.120077421495 O 0.0 **** 0.0
10674 H 25.585569850863102 38.92468187168748 18.38390589604753 H 0.0 **** 0.52
10675 H 26.911845883990704 38.31197889157864 17.98706753978965 H 0.0 **** 0.52
10676 M 26.055134847055392 38.23083467738153 18.136823933563093 M 0.0 **** -1.04
10677 O 45.85437221858935 42.026954971642745 16.900182185264324 O 0.0 **** 0.0
10678 H 46.08607114934531 42.70043052745786 17.539694263630846 H 0.0 **** 0.52
10679 H 46.38987362743758 42.22993756975056 16.133197372347816 H 0.0 **** 0.52
10680 M 45.952583474038676 42.13915323926485 16.883864274103377 M 0.0 **** -1.04
10681 O 42.52246531401508 42.57540680627557 46.97057918731208 O 0.0 **** 0.0
10682 H 41.78784156115521 42.078452709792856 46.61058832523086 H 0.0 **** 0.52
10683 H 42.43623994788963 43.44618406294141 46.582584435629904 H 0.0 **** 0.52
10684 M 42.41738590309328 42.62326060396953 46.874827976188584 M 0.0 **** -1.04
10685 O 41.12091627988155 12.644426823630877 41.03226089115844 O 0.0 **** 0.0
10686 H 41.017431283111804 12.53269305815441 41.977265797366044 H 0.0 **** 0.52
10687 H 40.27129387223018 12.397609138980215 40.66695124086597 H 0.0 **** 0.52
10688 M 40.998907144305164 12.598527883180278 41.10646929325282 M 0.0 **** -1.04
10689 O 5.911830135663436 47.48506076687242 17.699596088120202 O 0.0 **** 0.0
10690 H 5.213192007387143 46.83967682429833 17.807363953220715 H 0.0 **** 0.52
10691 H 6.198600652336253 47.679562228557835 18.591874267523153 H 0.0 **** 0.52
10692 M 5.859105327864114 47.42734170229002 17.82761449137638 M 0.0 **** -1.04
10693 O 6.068394307354223 42.035936225797236 29.6733516990609 O 0.0 **** 0.0
10694 H 5.716663559602008 42.813000791695295 30.10773102985889 H 0.0 **** 0.52
10695 H 6.854192778271301 41.816230438044975 30.173830249248336 H 0.0 **** 0.52
10696 M 6.123960754122098 42.107285345076384 29.793025351072057 M 0.0 **** -1.04
10697 O 34.38343339566122 3.907061959851191 11.520085436343606 O 0.0 **** 0.0
10698 H 35.218078736093545 3.6892817011470527 11.105154816270115 H 0.0 **** 0.52
10699 H 33.85866240799089 3.11096644640552 11.435959970280216 H 0.0 **** 0.52
10700 M 34.42310169725189 3.777273599427865 11.456200045106321 M 0.0 **** -1.04
10701 O 19.808339819747886 45.67324157980153 18.433415363055673 O 0.0 **** 0.0
10702 H 20.100093415601947 46.33059377115668 19.065077200208876 H 0.0 **** 0.52
10703 H 20.16868679887652 45.96764302662488 17.596930014522215 H 0.0 **** 0.52
10704 M 19.891816487082806 45.795077993866165 18.407194520343737 M 0.0 **** -1.04
10705 O 5.368822472482485 15.937029901608419 7.1259057489594415 O 0.0 **** 0.0
10706 H 4.691206187553433 15.283077269657259 6.954411310295707 H 0.0 **** 0.52
10707 H 5.545511217427574 15.85936144878707 8.063443795298117 H 0.0 **** 0.52
10708 M 5.304698062493117 15.843373678563655 7.223968462870068 M 0.0 **** -1.04
10709 O 33.53382304039137 23.612724832400755 25.653980700421386 O 0.0 **** 0.0
10710 H 33.31064519178601 23.006091025717986 24.947994563781805 H 0.0 **** 0.52
10711 H 34.25090299479571 23.183972230585766 26.121096524030662 H 0.0 **** 0.52
10712 M 33.59704904305269 23.480181883543644 25.623402316017888 M 0.0 **** -1.04
10713 O 35.54860162065601 6.400272284254285 30.810449320877524 O 0.0 **** 0.0
10714 H 35.6997939745007 6.312780202003495 31.751573932781213 H 0.0 **** 0.52
10715 H 34.687421844306584 6.812651410481195 30.743046758844315 H 0.0 **** 0.52
10716 M 35.457714669376756 6.441862258583072 30.922296328081472 M 0.0 **** -1.04
10717 O 7.687275978627497 26.725754281342176 43.9524062567215 O 0.0 **** 0.0
10718 H 7.94260902036406 26.735656162156488 43.02994392450194 H 0.0 **** 0.52
10719 H 8.13502797202542 27.481090479588957 44.333476828973346 H 0.0 **** 0.52
10720 M 7.777280032617284 26.82371419412884 43.883101164374416 M 0.0 **** -1.04
10721 O 23.645602088031673 29.925038119093397 7.2341775551089995 O 0.0 **** 0.0
10722 H 24.431012909337433 29.63294253502762 6.771534337846418 H 0.0 **** 0.52
10723 H 23.788098087282247 30.859895515902963 7.382387838983 H 0.0 **** 0.52
10724 M 23.76438592005386 30.00732018086743 7.193926189960244 M 0.0 **** -1.04
10725 O 18.075946403857486 11.763211187810079 45.422426510637145 O 0.0 **** 0.0
10726 H 17.36161124120534 11.432798845162916 44.87764997887522 H 0.0 **** 0.52
10727 H 18.27792567047372 11.04100607124241 46.017281460309796 H 0.0 **** 0.52
10728 M 18.010358310675613 11.628463731788099 45.42883718270455 M 0.0 **** -1.04
10729 O 47.90609691202388 6.408424940680852 27.551328988206603 O 0.0 **** 0.0
10730 H 47.18152174087223 7.032538700201798 27.510077984138285 H 0.0 **** 0.52
10731 H 48.02202885404125 6.236714245281732 28.485836595138768 H 0.0 **** 0.52
10732 M 47.828182926728864 6.4663379418714015 27.665677838347577 M 0.0 **** -1.04
10733 O 30.991009728211253 22.223799472278415 22.61950710974328 O 0.0 **** 0.0
10734 H 30.431259260447217 22.579137714905347 23.309900318509698 H 0.0 **** 0.52
10735 H 30.554862037338143 22.47323261768694 21.8047752855737 H 0.0 **** 0.52
10736 M 30.863522695892343 22.30121774588931 22.603590458726117 M 0.0 **** -1.04
10737 O 12.187128655346273 6.325569976192575 5.097005797092745 O 0.0 **** 0.0
10738 H 11.433073939697461 6.016828375078987 4.594702576291168 H 0.0 **** 0.52
10739 H 11.845441264480955 7.048829162718874 5.6227203875389264 H 0.0 **** 0.52
10740 M 12.046859810902623 6.378633370873104 5.100003196702791 M 0.0 **** -1.04
10741 O 1.3712396459244331 38.82226159154873 49.313476620259976 O 0.0 **** 0.0
10742 H 0.776674866016748 38.19239018003533 48.90606704696168 H 0.0 **** 0.52
10743 H 1.7368229881770318 39.31645820675404 48.579755533617586 H 0.0 **** 0.52
10744 M 1.3419271269606199 38.804893908396515 49.167397436243526 M 0.0 **** -1.04
10745 O 29.002539449018997 8.095085341239887 29.663195887968346 O 0.0 **** 0.0
10746 H 28.093904949684713 7.827617088675808 29.52508845836506 H 0.0 **** 0.52
10747 H 29.10768006128863 8.876791748102079 29.12087879890336 H 0.0 **** 0.52
10748 M 28.899682306241658 8.160914066937643 29.57609281276023 M 0.0 **** -1.04
10749 O 26.27198130229594 29.349993430078197 5.891086752959484 O 0.0 **** 0.0
10750 H 26.79779660775211 28.643497305986116 6.266067108304347 H 0.0 **** 0.52
10751 H 25.73329314100688 28.921263061063364 5.226080041756452 H 0.0 **** 0.52
10752 M 26.270333630271853 29.20467066654954 5.853959400962778 M 0.0 **** -1.04
10753 O 14.92527062883013 3.5773759821163864 9.139342229843109 O 0.0 **** 0.0
10754 H 14.514971109965847 4.3113396547568215 8.681980320770919 H 0.0 **** 0.52
10755 H 14.260857704698152 2.8883692118511917 9.131950573101953 H 0.0 **** 0.52
10756 M 14.787693492827259 3.583131357493798 9.079847912194118 M 0.0 **** -1.04
10757 O 44.94727850424034 33.31030041174753 17.556291023624528 O 0.0 **** 0.0
10758 H 44.7044026745044 34.18235233334815 17.867360481090685 H 0.0 **** 0.52
10759 H 45.87778100059948 33.23110485192983 17.766344021884784 H 0.0 **** 0.52
10760 M 45.03530337478678 33.41179623959698 17.62300155993946 M 0.0 **** -1.04
10761 O 0.7406108033980616 19.538836043493035 5.8888440631883014 O 0.0 **** 0.0
10762 H 1.1235646490399884 20.285600070896244 6.349189256710087 H 0.0 **** 0.52
10763 H 1.0524645791320242 18.773541271322923 6.371855126933823 H 0.0 **** 0.52
10764 M 0.8295549622002355 19.536464312552166 6.0096052310748265 M 0.0 **** -1.04
10765 O 23.30077883526129 30.879206351342685 10.642503131423972 O 0.0 **** 0.0
10766 H 22.429278712154403 30.687259349941097 10.296277790950347 H 0.0 **** 0.52
10767 H 23.51306918773748 31.744269680079455 10.29203690904177 H 0.0 **** 0.52
10768 M 23.216391528256242 30.965374295531735 10.553318081305248 M 0.0 **** -1.04
10769 O 33.344150498607426 38.58651799197746 37.830289288336196 O 0.0 **** 0.0
10770 H 33.70029987604997 39.29371335154085 38.3681191651458 H 0.0 **** 0.52
10771 H 33.2102345910952 38.98361603672615 36.9697031886212 H 0.0 **** 0.52
10772 M 33.37259920848542 38.727881791362265 37.78897225912592 M 0.0 **** -1.04
10773 O 29.04264518085118 8.069834270568494 32.23129909249293 O 0.0 **** 0.0
10774 H 29.191507046605057 8.277431599539277 31.308817790335805 H 0.0 **** 0.52
10775 H 29.648250437296273 8.639037843017668 32.706143344114686 H 0.0 **** 0.52
10776 M 29.139225801260373 8.169274768962927 32.17399543312075 M 0.0 **** -1.04
10777 O 31.31900914674554 0.44344099214053045 9.154318447134557 O 0.0 **** 0.0
10778 H 30.61052805788612 0.8075261651551529 8.623539769793105 H 0.0 **** 0.52
10779 H 31.434900380765907 1.074088006310248 9.865010192877328 H 0.0 **** 0.52
10780 M 31.243150623242016 0.5707789746576353 9.177349230236956 M 0.0 **** -1.04
10781 O 10.167599856695231 20.662854990774818 12.270927259836178 O 0.0 **** 0.0
10782 H 9.434604709816288 20.085805038515513 12.485310171666605 H 0.0 **** 0.52
10783 H 10.521111962954805 20.308740473669047 11.454925041005062 H 0.0 **** 0.52
10784 M 10.119021592681614 20.5436546569054 12.193912543600561 M 0.0 **** -1.04
10785 O 29.946372011755702 22.71329149013215 29.676176388855893 O 0.0 **** 0.0
10786 H 29.301948526561723 22.226795747410648 29.162106360233963 H 0.0 **** 0.52
10787 H 29.802387024865055 23.628887203841217 29.43705166517652 H 0.0 **** 0.52
10788 M 29.845445818572077 22.768221389679326 29.579758701312713 M 0.0 **** -1.04
10789 O 45.81051330162903 18.04044623844235 39.23805950757614 O 0.0 **** 0.0
10790 H 45.32914468821554 18.527484476798314 38.56924903754108 H 0.0 **** 0.52
10791 H 46.58890772307576 17.71613340076189 38.78512115006235 H 0.0 **** 0.52
10792 M 45.84853637656384 18.06127755768888 39.09446148624942 M 0.0 **** -1.04
10793 O 11.174042700115002 37.62074715515065 11.905655676643272 O 0.0 **** 0.0
10794 H 11.64946341253576 37.39030350425491 11.107471285985701 H 0.0 **** 0.52
10795 H 11.242150355052111 38.574039476298154 11.95879894533651 H 0.0 **** 0.52
10796 M 11.243620547690902 37.713281405264915 11.810281486898349 M 0.0 **** -1.04
10797 O 22.95540574911853 35.472599175062825 0.406345036454419 O 0.0 **** 0.0
10798 H 23.665947576679237 34.8604984029538 0.2147958712383946 H 0.0 **** 0.52
10799 H 23.269548696623556 35.97791850344861 1.156142248809401 H 0.0 **** 0.52
10800 M 23.086577967513662 35.45893026702132 0.4778079681270466 M 0.0 **** -1.04
10801 O 17.592475800636567 49.99198844356637 6.2269543638965 O 0.0 **** 0.0
10802 H 17.909991198575003 50.64406509167968 6.85162126811721 H 0.0 **** 0.52
10803 H 17.255206778551894 49.281391979245804 6.772418295030857 H 0.0 **** 0.52
10804 M 17.589947187784187 49.98449702472558 6.3767464638143645 M 0.0 **** -1.04
10805 O 15.0381732611987 24.09937890885449 10.481792051914624 O 0.0 **** 0.0
10806 H 15.50328822703426 23.284880086733494 10.290769533121162 H 0.0 **** 0.52
10807 H 14.418925501375568 23.865628430676153 11.17325548164054 H 0.0 **** 0.52
10808 M 15.018442392540194 23.965189366251636 10.54585479433985 M 0.0 **** -1.04
10809 O 3.6420676394929052 42.957746258702315 11.277518658559492 O 0.0 **** 0.0
10810 H 3.4407898799936314 42.47217589589348 10.477557263686077 H 0.0 **** 0.52
10811 H 3.1929094409384935 42.47449074425285 11.971024065561279 H 0.0 **** 0.52
10812 M 3.5588032636747133 42.833724032927506 11.263891204414511 M 0.0 **** -1.04
10813 O 33.297048587385646 15.277976791101784 0.7646935795303733 O 0.0 **** 0.0
10814 H 33.0014956434933 16.012749776721176 1.3022674759180575 H 0.0 **** 0.52
10815 H 32.60167706641233 14.625366147554633 0.8470703309540824 H 0.0 **** 0.52
10816 M 33.17019698119521 15.288494490351331 0.8440549404524234 M 0.0 **** -1.04
10817 O 17.550839672098324 8.76084922143557 34.77246086003521 O 0.0 **** 0.0
10818 H 17.52339312182181 9.699605559536552 34.95742464185669 H 0.0 **** 0.52
10819 H 16.676540308184553 8.555875557172124 34.44107668336116 H 0.0 **** 0.52
10820 M 17.435405050197353 8.854782804326186 34.75371669395815 M 0.0 **** -1.04
10821 O 0.588784978444842 25.913480832880257 36.43507007117178 O 0.0 **** 0.0
10822 H 0.7641964699465973 26.820512747055226 36.18456669678758 H 0.0 **** 0.52
10823 H 1.1988901297753145 25.39684868987667 35.908674927987306 H 0.0 **** 0.52
10824 M 0.6893411895543125 25.96345650147756 36.335617656266194 M 0.0 **** -1.04
10825 O 33.22221320319177 31.998353672025633 14.0213750005068 O 0.0 **** 0.0
10826 H 33.81402427464584 32.5874591972339 13.55346033984721 H 0.0 **** 0.52
10827 H 33.2006631689473 31.205011604054587 13.486238000783194 H 0.0 **** 0.52
10828 M 33.29521420074949 31.972209168146268 13.89297215608943 M 0.0 **** -1.04
10829 O 15.49255957219934 22.370572431912926 33.4972337761553 O 0.0 **** 0.0
10830 H 14.915600871682884 22.193740272694107 32.75421487337478 H 0.0 **** 0.52
10831 H 15.099882426840935 23.128102268006113 33.931032920380595 H 0.0 **** 0.52
10832 M 15.368434722927702 22.444909207277465 33.45765009858878 M 0.0 **** -1.04
10833 O 17.084588195770138 45.94038254605416 4.934313950735476 O 0.0 **** 0.0
10834 H 16.847116023540593 45.75004777759738 5.841842480811226 H 0.0 **** 0.52
10835 H 18.001624597752865 45.67480394112935 4.8654501905045375 H 0.0 **** 0.52
10836 M 17.171580915700716 45.882020238784506 5.04167398778478 M 0.0 **** -1.04
10837 O 47.15821707388825 49.15892911617057 17.439355978048482 O 0.0 **** 0.0
10838 H 47.9108825185033 49.39305693288437 17.9824103376044 H 0.0 **** 0.52
10839 H 47.137237446953286 49.82928418027661 16.756411258255213 H 0.0 **** 0.52
10840 M 47.25188223302713 49.27471473759431 17.421447984972232 M 0.0 **** -1.04
10841 O 30.669361685731456 45.01339867329463 31.825637991862205 O 0.0 **** 0.0
10842 H 30.958707275068257 45.096322384502685 32.73428006229808 H 0.0 **** 0.52
10843 H 29.87841910612741 45.550191066555946 31.775700739302014 H 0.0 **** 0.52
10844 M 30.605151097405418 45.092730360840044 31.935563537023462 M 0.0 **** -1.04
10845 O 41.64011466230427 16.94226232361217 3.326952648055369 O 0.0 **** 0.0
10846 H 40.698514061019225 16.979591146946035 3.494953560285739 H 0.0 **** 0.52
10847 H 42.000130255842464 17.68448471500232 3.8124658026315497 H 0.0 **** 0.52
10848 M 41.565664044908644 17.042054815330744 3.410610647368256 M 0.0 **** -1.04
10849 O 40.90005604378903 47.979627483359096 39.77667671070409 O 0.0 **** 0.0
10850 H 40.58136735041266 48.36840870316794 40.59124086512477 H 0.0 **** 0.52
10851 H 40.94300146638331 48.7120397953534 39.16189399238367 H 0.0 **** 0.52
10852 M 40.86475729561944 48.123154322574905 39.80225177638102 M 0.0 **** -1.04
10853 O 20.230611493580096 3.005938856742965 28.419434927229496 O 0.0 **** 0.0
10854 H 19.52430333635565 3.6151298656980018 28.20439041039494 H 0.0 **** 0.52
10855 H 19.85955470084027 2.1395893467873464 28.25214761770679 H 0.0 **** 0.52
10856 M 20.092695281586003 2.973019212384692 28.37049206635556 M 0.0 **** -1.04
10857 O 37.36896984691372 22.948841424735008 0.42356974626292043 O 0.0 **** 0.0
10858 H 38.09209807144198 22.629119749022472 0.9630990944103104 H 0.0 **** 0.52
10859 H 36.97622983396443 22.157451447497888 0.055211896100360036 H 0.0 **** 0.52
10860 M 37.41126385990864 22.8066052209984 0.4454815858111516 M 0.0 **** -1.04
10861 O 23.322351741820622 49.79609450829818 17.39093820723947 O 0.0 **** 0.0
10862 H 23.08237900609139 50.719906646527974 17.31873424002576 H 0.0 **** 0.52
10863 H 24.264249839897264 49.80540556241396 17.561144236469698 H 0.0 **** 0.52
10864 M 23.412207161394957 49.91554630720585 17.403484151956064 M 0.0 **** -1.04
10865 O 43.21708579264556 25.109812840186997 8.5458809887171 O 0.0 **** 0.0
10866 H 43.01238135292159 25.646799923563936 7.7803949938159604 H 0.0 **** 0.52
10867 H 42.366201024328525 24.923238767317134 8.942636146761659 H 0.0 **** 0.52
10868 M 43.08195672663987 25.154670047880696 8.49867906976927 M 0.0 **** -1.04
10869 O 35.05680094823655 36.50965761252545 39.35859488088335 O 0.0 **** 0.0
10870 H 35.216527247923565 36.0727386450682 38.52204392713924 H 0.0 **** 0.52
10871 H 34.22698973796302 36.970270158968695 39.234186307423634 H 0.0 **** 0.52
10872 M 34.97102164628139 36.51269131508382 39.23558006635734 M 0.0 **** -1.04
10873 O 25.908717788284996 2.109081249291016 4.648738470953845 O 0.0 **** 0.0
10874 H 26.682790860659882 2.2218319493894043 5.200397390592457 H 0.0 **** 0.52
10875 H 25.801724173769045 1.1606432819422707 4.576303587461041 H 0.0 **** 0.52
10876 M 25.99411206224516 2.002103392509312 4.7100855848730845 M 0.0 **** -1.04
10877 O 8.569417755604977 14.887673060331295 8.52488106882133 O 0.0 **** 0.0
10878 H 9.0707375105941 14.868019833285999 7.709699976562342 H 0.0 **** 0.52
10879 H 8.100726491290368 14.053185276726609 8.538564378322357 H 0.0 **** 0.52
10880 M 8.57359468646772 14.778332300822825 8.422279153777517 M 0.0 **** -1.04
10881 O 8.175224481914874 39.395613575614504 26.207960461892696 O 0.0 **** 0.0
10882 H 7.723980050650873 40.23969294793369 26.219729964651204 H 0.0 **** 0.52
10883 H 8.749101919692919 39.41958022539963 26.973675579954296 H 0.0 **** 0.52
10884 M 8.1909225152881 39.50673476348162 26.307488568155247 M 0.0 **** -1.04
10885 O 11.515726570655893 31.71364007335849 16.09584881430905 O 0.0 **** 0.0
10886 H 10.601766593102823 31.471022166061488 15.94738253240363 H 0.0 **** 0.52
10887 H 11.982339544198538 30.878790881131565 16.134927040376148 H 0.0 **** 0.52
10888 M 11.45846039724578 31.57571009168575 16.08184624241266 M 0.0 **** -1.04
10889 O 22.38243133446344 44.94792731375912 25.002995302995167 O 0.0 **** 0.0
10890 H 22.561220358521158 45.440250229458435 25.804170164130255 H 0.0 **** 0.52
10891 H 23.127530361869262 44.35348424776699 24.91528099968166 H 0.0 **** 0.52
10892 M 22.50070118718761 44.9348549910962 25.09432779361488 M 0.0 **** -1.04
10893 O 24.315366708513487 33.5371473683383 9.876491367905459 O 0.0 **** 0.0
10894 H 25.21861117785984 33.30580592579773 10.092963452209716 H 0.0 **** 0.52
10895 H 24.114948998392574 34.28019764378275 10.445646891969304 H 0.0 **** 0.52
10896 M 24.405337319842765 33.60265202266945 9.97706155188154 M 0.0 **** -1.04
10897 O 33.18321184719797 6.714468114009498 24.6471643327159 O 0.0 **** 0.0
10898 H 34.061476071285014 6.716853924726953 24.26654001992324 H 0.0 **** 0.52
10899 H 33.13812080559507 5.896049734980057 25.141518611507813 H 0.0 **** 0.52
10900 M 33.28986942421396 6.610006081796251 24.661723036949187 M 0.0 **** -1.04
10901 O 41.08762745790814 20.534171688667534 22.7963171097735 O 0.0 **** 0.0
10902 H 41.68129827591279 19.812097522184917 23.00221326676133 H 0.0 **** 0.52
10903 H 40.89958171537649 20.431679939640198 21.863384585235814 H 0.0 **** 0.52
10904 M 41.13955318514385 20.428616608681036 22.703247227619862 M 0.0 **** -1.04
10905 O 36.50525491002487 14.641614819250904 46.93200099589336 O 0.0 **** 0.0
10906 H 37.06116019485648 15.144158823822462 47.527522888468695 H 0.0 **** 0.52
10907 H 36.24425457080547 15.270479160978779 46.259217227735576 H 0.0 **** 0.52
10908 M 36.54300688256367 14.786449404170304 46.92210978435702 M 0.0 **** -1.04
10909 O 14.590043593416727 22.978830950505955 0.06012421757686004 O 0.0 **** 0.0
10910 H 14.824835836133063 22.439099991546485 0.8149696838862546 H 0.0 **** 0.52
10911 H 13.692231572648389 23.260168544873547 0.23622294860082532 H 0.0 **** 0.52
10912 M 14.505169003693053 22.94575319271245 0.17929697957216562 M 0.0 **** -1.04
10913 O 23.489608536744115 30.060236008404708 2.535810768685195 O 0.0 **** 0.0
10914 H 23.668129361299435 29.491724828131378 1.786709272254356 H 0.0 **** 0.52
10915 H 24.105217449241536 30.78664298489507 2.437888962081857 H 0.0 **** 0.52
10916 M 23.591267272655685 30.080448584469433 2.4273808147901548 M 0.0 **** -1.04
10917 O 29.37847097625183 27.658589984921246 26.87239656554484 O 0.0 **** 0.0
10918 H 29.944558114708556 28.16545491839453 27.45451420081881 H 0.0 **** 0.52
10919 H 29.924935281371972 27.471738198367074 26.10905378565822 H 0.0 **** 0.52
10920 M 29.520891553737137 27.699555728034255 26.849196841366542 M 0.0 **** -1.04
10921 O 18.000482779185063 33.1435467052357 43.905838346675694 O 0.0 **** 0.0
10922 H 17.81412049834242 32.610017084676926 43.13328233719912 H 0.0 **** 0.52
10923 H 17.687906478014455 34.01820626718019 43.67454651363703 H 0.0 **** 0.52
10924 M 17.936612392171597 33.18721622240394 43.77733380058865 M 0.0 **** -1.04
10925 O 31.12982233295728 3.001987825365174 31.185731896986283 O 0.0 **** 0.0
10926 H 31.65251158276597 3.2256180116723447 30.41565690006344 H 0.0 **** 0.52
10927 H 30.619584749165867 2.2383727612322137 30.91595830757842 H 0.0 **** 0.52
10928 M 31.13141659998163 2.9328625984323726 31.052617956678947 M 0.0 **** -1.04
10929 O 33.13850744528836 45.46200418674929 25.043152144860084 O 0.0 **** 0.0
10930 H 33.80978764938456 46.00572286560894 25.455440812244866 H 0.0 **** 0.52
10931 H 33.42862951242115 45.36943008354511 24.135690052435404 H 0.0 **** 0.52
10932 M 33.26157864030058 45.5197561694924 24.979763667093934 M 0.0 **** -1.04
10933 O 28.71765008458526 33.934293169670674 29.698229643682794 O 0.0 **** 0.0
10934 H 29.08118017708805 34.80865680406382 29.838091312316237 H 0.0 **** 0.52
10935 H 28.253276378922514 33.73461692853048 30.511074095364904 H 0.0 **** 0.52
10936 M 28.70474083949643 34.02066170741994 29.82018854761479 M 0.0 **** -1.04
10937 O 32.971208573384764 39.026979696348 45.247296800850954 O 0.0 **** 0.0
10938 H 32.349270098758026 39.372224277553705 45.887787299390574 H 0.0 **** 0.52
10939 H 33.47110625945417 38.368119909435265 45.72920326036488 H 0.0 **** 0.52
10940 M 32.955585418488496 38.986832791883664 45.39097784530709 M 0.0 **** -1.04
10941 O 29.10268574842745 38.6086650800318 7.572836752740621 O 0.0 **** 0.0
10942 H 28.3411810022333 38.03437890424222 7.653668199018824 H 0.0 **** 0.52
10943 H 29.060303107273178 39.17347863667996 8.344469647128172 H 0.0 **** 0.52
10944 M 28.999777791825228 38.60745243248606 7.681962502171729 M 0.0 **** -1.04
10945 O 46.741760613814925 3.544122452940954 41.14672100751448 O 0.0 **** 0.0
10946 H 47.69846372472722 3.5714645758066084 41.16086334257057 H 0.0 **** 0.52
10947 H 46.524851629165504 3.175011717072053 40.290604623773014 H 0.0 **** 0.52
10948 M 46.83646336129463 3.5003715439964367 41.03893721099886 M 0.0 **** -1.04
10949 O 37.908296839423116 22.578703704971 37.300995749298906 O 0.0 **** 0.0
10950 H 37.43744946739201 23.1698624617976 37.888415554754815 H 0.0 **** 0.52
10951 H 38.63493223693195 23.10315822418489 36.96457622883444 H 0.0 **** 0.52
10952 M 37.941041145458954 22.721515889619855 37.33312786252008 M 0.0 **** -1.04
10953 O 20.714953902157212 1.1012209326914182 47.687130650039116 O 0.0 **** 0.0
10954 H 21.31589521949233 0.5936349352619432 48.23252442621639 H 0.0 **** 0.52
10955 H 20.56808946190404 1.908876434363043 48.17942271706085 H 0.0 **** 0.52
10956 M 20.773081416201425 1.1396335024781004 47.81996806512762 M 0.0 **** -1.04
10957 O 38.98514755333543 26.433210647560735 41.9820200126346 O 0.0 **** 0.0
10958 H 39.74936751571097 26.906103786649368 42.3115174615728 H 0.0 **** 0.52
10959 H 39.33777577984773 25.60582188658843 41.65443851084814 H 0.0 **** 0.52
10960 M 39.12811778899367 26.387830835723847 41.982264582625994 M 0.0 **** -1.04
10961 O 6.309064716410802 20.017007773219582 34.26842667727164 O 0.0 **** 0.0
10962 H 6.907350802068194 19.27976784099626 34.389915606292156 H 0.0 **** 0.52
10963 H 6.335445933728574 20.195088298962794 33.328310108159975 H 0.0 **** 0.52
10964 M 6.389030315551929 19.945428923877543 34.16363249795389 M 0.0 **** -1.04
10965 O 0.04675586837461765 9.293932248823761 14.155150766735233 O 0.0 **** 0.0
10966 H 0.7528002151060136 8.660103815749203 14.281610882046124 H 0.0 **** 0.52
10967 H 0.012594338010536887 9.429373351194945 13.20819892326736 H 0.0 **** 0.52
10968 M 0.13276485883222477 9.230131954952247 14.050117194771985 M 0.0 **** -1.04
10969 O 28.98965120977313 5.247189365667495 6.485133151845097 O 0.0 **** 0.0
10970 H 28.742207945679084 6.141983670109674 6.718252755250702 H 0.0 **** 0.52
10971 H 28.92874156951442 4.759607086883555 7.306585501518574 H 0.0 **** 0.52
10972 M 28.950178342277766 5.299317751041777 6.62013240901326 M 0.0 **** -1.04
10973 O 10.078484782297862 16.877711633470643 0.5120569762311789 O 0.0 **** 0.0
10974 H 9.999567839366529 15.924314385508197 0.4799045805207527 H 0.0 **** 0.52
10975 H 10.193264041911341 17.07782902234014 1.4410381418344258 H 0.0 **** 0.52
10976 M 10.08307570591371 16.78128299350137 0.6268618710399494 M 0.0 **** -1.04
10977 O 7.523073474206946 23.701047869202014 3.7231272365016395 O 0.0 **** 0.0
10978 H 7.763092535271944 24.353466931740584 4.381131192165263 H 0.0 **** 0.52
10979 H 7.682401337056611 22.859436194423907 4.150365399422711 H 0.0 **** 0.52
10980 M 7.574194342269905 23.67682924341075 3.8620519682173295 M 0.0 **** -1.04
10981 O 45.61918129039901 13.025147075403083 34.1001458836521 O 0.0 **** 0.0
10982 H 45.93845063275592 12.406849235519102 34.75741560947985 H 0.0 **** 0.52
10983 H 46.41267957851198 13.39590671062745 33.71397628684909 H 0.0 **** 0.52
10984 M 45.7616293553484 12.993459018956187 34.1348503038863 M 0.0 **** -1.04
10985 O 42.01352919055069 36.422642609620084 45.82115609535442 O 0.0 **** 0.0
10986 H 42.50702786033471 36.36921630083089 46.63958917259404 H 0.0 **** 0.52
10987 H 42.412129392369536 35.7601182099042 45.2568789346041 H 0.0 **** 0.52
10988 M 42.12772906198166 36.33099161490268 45.85369119490043 M 0.0 **** -1.04
10989 O 22.598100188317556 41.99961450605756 1.8459735927985177 O 0.0 **** 0.0
10990 H 23.28890649145355 41.614903576796905 2.3854291558628624 H 0.0 **** 0.52
10991 H 23.045022302391306 42.66425182664492 1.3218115300971043 H 0.0 **** 0.52
10992 M 22.743743131394794 42.035448619065846 1.8479312116867603 M 0.0 **** -1.04
10993 O 15.17833472612459 42.59254255347093 11.831628925717453 O 0.0 **** 0.0
10994 H 16.00851140667076 42.96167739613694 12.132917177295717 H 0.0 **** 0.52
10995 H 14.758537973460804 43.30627538489741 11.351435558047015 H 0.0 **** 0.52
10996 M 15.230868383710037 42.731162510092965 11.808726689324047 M 0.0 **** -1.04
10997 O 17.364040139066038 39.505424338703676 39.912793925984666 O 0.0 **** 0.0
10998 H 17.661123544597388 39.12788959620964 40.74070507707764 H 0.0 **** 0.52
10999 H 18.121789109638566 39.4365546783346 39.33201677814466 H 0.0 **** 0.52
11000 M 17.499072432911994 39.4482796979273 39.944430436178486 M 0.0 **** -1.04
11001 O 41.6724637863707 0.514050930634653 47.95258062020152 O 0.0 **** 0.0
11002 H 42.25036875552407 1.13249325942364 47.505610634446185 H 0.0 **** 0.52
11003 H 41.91037722230448 0.5882284646144669 48.87676871691402 H 0.0 **** 0.52
11004 M 41.77689874628155 0.6027143571379767 48.01367081936729 M 0.0 **** -1.04
11005 O 16.151283461807864 21.105199764320822 26.468157676513943 O 0.0 **** 0.0
11006 H 16.48525736758785 21.841655029760297 26.980333092681356 H 0.0 **** 0.52
11007 H 16.37307795806319 20.331930895170306 26.986897895003167 H 0.0 **** 0.52
11008 M 16.22242909361701 21.100486999447266 26.6001279866436 M 0.0 **** -1.04
11009 O 13.809888404825209 33.46959214427925 31.500303766571097 O 0.0 **** 0.0
11010 H 13.881132277921196 33.106398564139916 30.617556389013593 H 0.0 **** 0.52
11011 H 13.684980457604226 32.70645412399647 32.064436368335706 H 0.0 **** 0.52
11012 M 13.80301882343091 33.325407860097584 31.459517635258067 M 0.0 **** -1.04
11013 O 31.63901541578652 39.098478166061106 21.438467744944102 O 0.0 **** 0.0
11014 H 32.17795779121378 38.40463122216924 21.818396540193138 H 0.0 **** 0.52
11015 H 32.101993380688036 39.351922005953604 20.639939523506783 H 0.0 **** 0.52
11016 M 31.76727405133838 39.04210159651115 21.38488200544963 M 0.0 **** -1.04
11017 O 38.761736707364484 21.39391506575972 46.57108529245515 O 0.0 **** 0.0
11018 H 38.700095394884436 20.898544772056912 47.387808048389445 H 0.0 **** 0.52
11019 H 39.58023444821427 21.88405541168741 46.648879443566074 H 0.0 **** 0.52
11020 M 38.85862459096986 21.3932450741159 46.68559456044098 M 0.0 **** -1.04
11021 O 8.982942462639532 14.51178570748992 5.3778799770930945 O 0.0 **** 0.0
11022 H 9.832629373971312 14.531831422431267 4.937585364709584 H 0.0 **** 0.52
11023 H 8.425121329256474 15.082272719878318 4.8491003980212355 H 0.0 **** 0.52
11024 M 9.020305084434211 14.587380674156257 5.253826231307876 M 0.0 **** -1.04
11025 O 26.091474904468196 9.731354510046257 42.816224011082454 O 0.0 **** 0.0
11026 H 26.08932528690701 10.646085697705896 42.53428411989222 H 0.0 **** 0.52
11027 H 25.217660722429343 9.590507225275061 43.180694122890806 H 0.0 **** 0.52
11028 M 25.9793403716048 9.830420748356946 42.82678841359559 M 0.0 **** -1.04
11029 O 19.1579490078924 8.731073414713109 31.072808664292012 O 0.0 **** 0.0
11030 H 18.29689436978677 8.427528734946364 31.360338434133734 H 0.0 **** 0.52
11031 H 19.77814497287473 8.232418430991018 31.604719550411975 H 0.0 **** 0.52
11032 M 19.127116333048864 8.62838174122075 31.177707125402442 M 0.0 **** -1.04
11033 O 22.041428733298293 48.13428293797829 24.505846940130695 O 0.0 **** 0.0
11034 H 22.939244894777694 47.85376541106657 24.328466078394314 H 0.0 **** 0.52
11035 H 22.137544817194183 48.94981234214481 24.997682795702374 H 0.0 **** 0.52
11036 M 22.168664553918234 48.20277104326472 24.54610120966123 M 0.0 **** -1.04
11037 O 47.73245621535104 40.18673123245531 25.599961639124533 O 0.0 **** 0.0
11038 H 47.02075563457822 40.45465149105674 25.01864423726904 H 0.0 **** 0.52
11039 H 47.85975506179133 39.257082178581186 25.410818505793284 H 0.0 **** 0.52
11040 M 47.65764484346864 40.102021590268 25.501333118256802 M 0.0 **** -1.04
11041 O 48.02904629155442 28.245607947817508 28.829562926278275 O 0.0 **** 0.0
11042 H 48.00482398964683 28.926151718554713 28.156879401260223 H 0.0 **** 0.52
11043 H 48.21581324361961 27.439341571673964 28.348645352377844 H 0.0 **** 0.52
11044 M 48.049854654327646 28.22951398761841 28.681887435580517 M 0.0 **** -1.04
11045 O 40.15897792460699 41.872963903817634 13.652730641766416 O 0.0 **** 0.0
11046 H 39.80127169966099 41.91234119413732 14.539705928891284 H 0.0 **** 0.52
11047 H 39.671788338655546 42.53900843382983 13.167694533668707 H 0.0 **** 0.52
11048 M 40.05082028198626 41.96326642827071 13.704184484753469 M 0.0 **** -1.04
11049 O 43.279014702749784 27.53073612615557 35.77200782818885 O 0.0 **** 0.0
11050 H 43.080075939383654 27.948191357088813 36.610091462438604 H 0.0 **** 0.52
11051 H 42.47087020743077 27.61211579031032 35.26554146360372 H 0.0 **** 0.52
11052 M 43.15009572684266 27.59459313125236 35.81445945760531 M 0.0 **** -1.04
11053 O 21.855616170775694 36.55064095493238 43.64205495839264 O 0.0 **** 0.0
11054 H 22.67500032737951 36.639570534868426 44.128808720449406 H 0.0 **** 0.52
11055 H 21.407777529584404 35.81428162885738 44.05852218587598 H 0.0 **** 0.52
11056 M 21.903178809166214 36.46776213065098 43.757678442097614 M 0.0 **** -1.04
11057 O 4.642319630589493 34.19954570227039 23.201179997569277 O 0.0 **** 0.0
11058 H 4.341017661341958 33.32201646698899 22.96582988422255 H 0.0 **** 0.52
11059 H 5.580896045491988 34.18937966999753 23.013563392888543 H 0.0 **** 0.52
11060 M 4.723898856265413 34.085909452913825 23.147034927246363 M 0.0 **** -1.04
11061 O 40.795834595640144 0.9789913947553401 11.960083422054216 O 0.0 **** 0.0
11062 H 40.354292638993826 0.8887699494859334 11.115612694219566 H 0.0 **** 0.52
11063 H 41.72457330791112 1.0484922447788065 11.739081374868226 H 0.0 **** 0.52
11064 M 40.85820218352593 0.9763384583170875 11.823689819452978 M 0.0 **** -1.04
11065 O 14.973453987495432 8.21306157581487 22.778456074968158 O 0.0 **** 0.0
11066 H 14.467012419055465 8.255976048188964 23.589568784306017 H 0.0 **** 0.52
11067 H 15.885274819055525 8.284496213057515 23.060784901398566 H 0.0 **** 0.52
11068 M 15.025347621540135 8.227699580654749 22.91843005239228 M 0.0 **** -1.04
11069 O 35.4148355740222 35.41675892883629 36.91162393853309 O 0.0 **** 0.0
11070 H 35.04419765676708 35.123501862830295 36.079243698688074 H 0.0 **** 0.52
11071 H 35.445271419032196 34.627375461484135 37.45215716180222 H 0.0 **** 0.52
11072 M 35.371285223437106 35.27816696608602 36.87426419760862 M 0.0 **** -1.04
11073 O 31.244207652712163 49.20957018368321 2.0898877533359936 O 0.0 **** 0.0
11074 H 31.059074089952208 50.14327544268745 1.9891444426044629 H 0.0 **** 0.52
11075 H 30.70771108361377 48.78494095100595 1.4204924078068686 H 0.0 **** 0.52
11076 M 31.151830247341955 49.27473836972748 1.9913007964361142 M 0.0 **** -1.04
11077 O 3.1761785584865763 22.570067276853564 21.892494926099133 O 0.0 **** 0.0
11078 H 3.2609275270050873 22.171452914373532 21.026381153517065 H 0.0 **** 0.52
11079 H 3.5229388334535017 23.45563624469888 21.78408515071473 H 0.0 **** 0.52
11080 M 3.231416790858603 22.632403758344896 21.767743745564786 M 0.0 **** -1.04
11081 O 19.731833070977476 38.05470612695445 3.5113688505761806 O 0.0 **** 0.0
11082 H 20.495468423397856 37.49838798773354 3.6649905004864327 H 0.0 **** 0.52
11083 H 19.974488664927147 38.592595435170516 2.757695475589817 H 0.0 **** 0.52
11084 M 19.860651076508965 38.052347365093134 3.434554293340193 M 0.0 **** -1.04
11085 O 38.18800609948833 22.56380093735651 43.67196140433622 O 0.0 **** 0.0
11086 H 37.597481448568175 22.694367693121706 44.413893112085546 H 0.0 **** 0.52
11087 H 38.47716268690547 21.65487821757875 43.75244235517132 H 0.0 **** 0.52
11088 M 38.149426645226264 22.464161729157905 43.77724070672469 M 0.0 **** -1.04
11089 O 15.787067543391613 48.84491379000689 14.683419981355804 O 0.0 **** 0.0
11090 H 15.942003205624065 48.644235326039066 15.606432700799889 H 0.0 **** 0.52
11091 H 14.845809149815379 49.00994909718476 14.6284217678261 H 0.0 **** 0.52
11092 M 15.686408963222517 48.840350727707964 14.79453712515373 M 0.0 **** -1.04
11093 O 18.972443539612243 25.691341623069718 34.65454595973693 O 0.0 **** 0.0
11094 H 18.918930158100864 24.816132304292097 34.27065251325271 H 0.0 **** 0.52
11095 H 19.909096769726034 25.88751930987391 34.675122063062624 H 0.0 **** 0.52
11096 M 19.085496304402994 25.60441734892113 34.60803658307029 M 0.0 **** -1.04
11097 O 5.793293097052995 21.92318167224296 15.657858664648089 O 0.0 **** 0.0
11098 H 4.836195120415113 21.910211698941065 15.6529890446337 H 0.0 **** 0.52
11099 H 6.020948729412751 22.851856972958938 15.613540938715673 H 0.0 **** 0.52
11100 M 5.699915465270102 22.0404026874473 15.651561705772664 M 0.0 **** -1.04
11101 O 24.77578866104241 18.513618785695286 6.168603975786337 O 0.0 **** 0.0
11102 H 25.551640538133313 18.29729256005683 6.68579450010612 H 0.0 **** 0.52
11103 H 24.193503569427712 18.958865302793356 6.784174281424899 H 0.0 **** 0.52
11104 M 24.800567958039807 18.542923783644156 6.313611387253896 M 0.0 **** -1.04
11105 O 24.102293153774863 49.33214065854438 47.449165647976564 O 0.0 **** 0.0
11106 H 23.39134405959379 49.00004043113506 46.90099746665628 H 0.0 **** 0.52
11107 H 23.661759485922452 49.713046028319866 48.208816362775735 H 0.0 **** 0.52
11108 M 23.95488956972973 49.33838833422206 47.47623796129258 M 0.0 **** -1.04
11109 O 44.37384335902634 39.308386841782585 3.4484236841836875 O 0.0 **** 0.0
11110 H 44.0813463299293 40.219788607173825 3.443963147918616 H 0.0 **** 0.52
11111 H 44.773295470677816 39.188751471241304 4.310023759010903 H 0.0 **** 0.52
11112 M 44.387534441498396 39.40974286757099 3.5581487424161367 M 0.0 **** -1.04
11113 O 14.32333327282079 13.44137103609644 14.433842128893147 O 0.0 **** 0.0
11114 H 13.679408981327533 13.751425699425653 13.797088257767854 H 0.0 **** 0.52
11115 H 14.141369379236792 13.948011244704828 15.225317860806229 H 0.0 **** 0.52
11116 M 14.217609111415484 13.545918131717503 14.453648631217575 M 0.0 **** -1.04
11117 O 10.073462947256282 44.207764599031016 18.768552635511483 O 0.0 **** 0.0
11118 H 9.987639355744562 45.07645165511467 19.161293927990563 H 0.0 **** 0.52
11119 H 10.86955767245017 44.26104484039257 18.239759760781407 H 0.0 **** 0.52
11120 M 10.164386905016286 44.32578786671918 18.751136546556914 M 0.0 **** -1.04
11121 O 31.802824626721428 27.413954888409716 6.749422502425908 O 0.0 **** 0.0
11122 H 32.32621957492581 28.153258174530215 7.0588037955185285 H 0.0 **** 0.52
11123 H 31.13007959500127 27.810996939032357 6.196248983349563 H 0.0 **** 0.52
11124 M 31.78370609781025 27.559421678751438 6.7182138903139705 M 0.0 **** -1.04
11125 O 38.99429052153309 48.03328576399244 43.99571499399863 O 0.0 **** 0.0
11126 H 39.2940306429149 47.65845590559283 44.823898784520836 H 0.0 **** 0.52
11127 H 38.151309545116135 48.43533489888366 44.2054003988148 H 0.0 **** 0.52
11128 M 38.92474925477406 48.03676983619684 44.1285761698869 M 0.0 **** -1.04
11129 O 47.1038105618169 30.85502881160179 15.501792672977786 O 0.0 **** 0.0
11130 H 47.54945681168153 30.07903042276935 15.162006546714906 H 0.0 **** 0.52
11131 H 46.191308358970915 30.58353700059839 15.601094847979269 H 0.0 **** 0.52
11132 M 47.04404691492356 30.72093705612699 15.471007790816458 M 0.0 **** -1.04
11133 O 41.13189978165729 29.146211893656357 40.279242196064445 O 0.0 **** 0.0
11134 H 40.45427924140143 29.76685449444838 40.54731243002006 H 0.0 **** 0.52
11135 H 41.296402327299326 28.618231843487536 41.06052634113306 H 0.0 **** 0.52
11136 M 41.06621477614528 29.158074131455464 40.4135731222851 M 0.0 **** -1.04
11137 O 12.175081209129964 29.38943699501999 12.155436128618947 O 0.0 **** 0.0
11138 H 12.234238850309296 30.05365500360206 12.842126314511523 H 0.0 **** 0.52
11139 H 12.510234108708467 28.591337220567667 12.564016379919824 H 0.0 **** 0.52
11140 M 12.225558158875657 29.372298247442032 12.295644617066863 M 0.0 **** -1.04
11141 O 29.982219249789356 21.899300076058974 41.73633527724995 O 0.0 **** 0.0
11142 H 30.639891506712424 22.586664194301406 41.63038342873402 H 0.0 **** 0.52
11143 H 30.281413214889067 21.39549866586306 42.49323328162103 H 0.0 **** 0.52
11144 M 30.104710086978283 21.922798490727903 41.81966476879879 M 0.0 **** -1.04
11145 O 34.78619688550956 8.924543210388325 18.424845353528884 O 0.0 **** 0.0
11146 H 34.899487617323295 8.829219726880659 19.370524255868197 H 0.0 **** 0.52
11147 H 34.32863325176229 8.127787037839397 18.156435483431302 H 0.0 **** 0.52
11148 M 34.74212535814504 8.810345826061035 18.511544783080375 M 0.0 **** -1.04
11149 O 1.3334379702875387 17.89006222726286 15.663812579854074 O 0.0 **** 0.0
11150 H 0.806270220648304 17.67994329498636 16.434639089089867 H 0.0 **** 0.52
11151 H 0.7997892125715749 18.513182620067585 15.170690752042269 H 0.0 **** 0.52
11152 M 1.197640699392091 17.942931528991437 15.699362853075103 M 0.0 **** -1.04
11153 O 27.366586718773355 17.57191829145677 15.034842685354958 O 0.0 **** 0.0
11154 H 26.736404749168617 17.255090306122955 14.387757288766052 H 0.0 **** 0.52
11155 H 26.959869338437993 17.380127809616884 15.87984395615813 H 0.0 **** 0.52
11156 M 27.23385109500974 17.506808634824093 15.06017899335878 M 0.0 **** -1.04
11157 O 37.736536162800995 32.9815361646859 13.694626669919739 O 0.0 **** 0.0
11158 H 37.14579259268944 32.240729175786534 13.558772940381393 H 0.0 **** 0.52
11159 H 37.444456176078035 33.640116233505054 13.064395586995511 H 0.0 **** 0.52
11160 M 37.623523178859585 32.97101048558366 13.596557739895552 M 0.0 **** -1.04
11161 O 23.671750422168728 39.54830234887655 37.640811692841666 O 0.0 **** 0.0
11162 H 23.954044499704832 40.382015038973165 37.26469687574196 H 0.0 **** 0.52
11163 H 24.085743186901553 38.884025578288174 37.089834481321446 H 0.0 **** 0.52
11164 M 23.760884668386694 39.5699922145034 37.52213186291996 M 0.0 **** -1.04
11165 O 30.739064305638816 11.408563591294751 18.99884060914235 O 0.0 **** 0.0
11166 H 30.22147312186368 11.810312052043109 19.6966415597622 H 0.0 **** 0.52
11167 H 31.219940979944596 10.70348854187548 19.432263011471093 H 0.0 **** 0.52
11168 M 30.734364743471854 11.369734125577075 19.143651230595083 M 0.0 **** -1.04
11169 O 40.35556871912141 35.568017912073955 13.400084782481958 O 0.0 **** 0.0
11170 H 40.10280400388554 36.082834020359435 14.166442607631698 H 0.0 **** 0.52
11171 H 41.2193484676113 35.90335814449392 13.159957722088985 H 0.0 **** 0.52
11172 M 40.43378694909341 35.6768486020062 13.467449039331653 M 0.0 **** -1.04
11173 O 20.616602627228673 21.075681180039552 38.002251558809704 O 0.0 **** 0.0
11174 H 20.276766118154598 20.897028989209133 37.12542576071238 H 0.0 **** 0.52
11175 H 21.27596111562066 21.756826621553145 37.869905702067335 H 0.0 **** 0.52
11176 M 20.657505021195306 21.140006254403644 37.87306470283025 M 0.0 **** -1.04
11177 O 39.07871600505566 42.85765116890575 42.822344070749274 O 0.0 **** 0.0
11178 H 38.69250451055552 42.95246143488567 43.693021613756834 H 0.0 **** 0.52
11179 H 38.40499800585305 43.181388663922654 42.22440859872532 H 0.0 **** 0.52
11180 M 38.943031582285194 42.91123053756371 42.85725853939275 M 0.0 **** -1.04
11181 O 37.170896766760336 38.78859526384298 49.980188819291165 O 0.0 **** 0.0
11182 H 37.54908096366793 39.18374799650313 50.76571969446216 H 0.0 **** 0.52
11183 H 37.618437794584004 37.946683823889316 49.89580289940507 H 0.0 **** 0.52
11184 M 37.27660076847874 38.73140472530159 50.06994397820179 M 0.0 **** -1.04
11185 O 48.39094844147164 43.51360967159524 39.03277278933017 O 0.0 **** 0.0
11186 H 47.758283797492616 42.795691311717924 39.0564070174969 H 0.0 **** 0.52
11187 H 48.77223437900654 43.46871342486155 38.15594106231953 H 0.0 **** 0.52
11188 M 48.358768518962236 43.41596012282667 38.923552057637025 M 0.0 **** -1.04
11189 O 48.843606661239505 1.9738829544019723 36.44245376038699 O 0.0 **** 0.0
11190 H 49.507520951505654 2.656930391457138 36.53674961159579 H 0.0 **** 0.52
11191 H 48.01256861192997 2.448354237121876 36.42053686614177 H 0.0 **** 0.52
11192 M 48.82221311252071 2.122059397586689 36.45171965442672 M 0.0 **** -1.04
11193 O 28.488780854768375 16.73727285676839 47.55024675325689 O 0.0 **** 0.0
11194 H 29.263592331513866 16.563971720850507 48.08490781930079 H 0.0 **** 0.52
11195 H 28.823691311461715 16.80063193760199 46.655791879352385 H 0.0 **** 0.52
11196 M 28.630839241080547 16.723199157275936 47.50418811704195 M 0.0 **** -1.04
11197 O 29.533509636133125 43.47314654596436 22.817985793141943 O 0.0 **** 0.0
11198 H 28.81000207818822 43.30751646797507 23.42241344539593 H 0.0 **** 0.52
11199 H 29.390455647092768 44.36880981900286 22.51212583798925 H 0.0 **** 0.52
11200 M 29.4225784830445 43.56659960989806 22.856206505495855 M 0.0 **** -1.04
11201 O 47.34691713557387 28.571712965533106 4.824104055842136 O 0.0 **** 0.0
11202 H 46.90601688795404 28.185114356318955 4.067548934442021 H 0.0 **** 0.52
11203 H 47.32874215936422 29.514005313289566 4.65682247131571 H 0.0 **** 0.52
11204 M 47.288148937624655 28.64284872732661 4.7058413968078225 M 0.0 **** -1.04
11205 O 46.9511628798879 8.439045152276469 22.984493609240623 O 0.0 **** 0.0
11206 H 46.57205839890372 7.634644316612811 23.33867921843868 H 0.0 **** 0.52
11207 H 46.227646986220826 8.861972850388845 22.522017180781646 H 0.0 **** 0.52
11208 M 46.810013293716125 8.390211313033916 22.97063111857843 M 0.0 **** -1.04
11209 O 10.431112336327375 30.823607054551726 26.757383290690143 O 0.0 **** 0.0
11210 H 9.943019894308739 30.82073184821463 25.933985166415965 H 0.0 **** 0.52
11211 H 10.824560459435641 31.695158241563572 26.80010072782366 H 0.0 **** 0.52
11212 M 10.418997105434583 30.934808115840074 26.657446226871087 M 0.0 **** -1.04
11213 O 28.336698887425754 30.09376627701452 7.946784840936187 O 0.0 **** 0.0
11214 H 28.634850921974866 30.10439885295735 8.856301805602776 H 0.0 **** 0.52
11215 H 27.467829762839358 30.494434476168347 7.9743567557152355 H 0.0 **** 0.52
11216 M 28.26363956467146 30.14641854074453 8.066743936126157 M 0.0 **** -1.04
11217 O 30.936171928028447 47.06259361013366 43.8796456707821 O 0.0 **** 0.0
11218 H 31.05412709299145 46.38701665472436 44.54741098965664 H 0.0 **** 0.52
11219 H 31.151570751328375 46.6257488518832 43.05563157758995 H 0.0 **** 0.52
11220 M 30.97884523346867 46.92018980550439 43.85964360024127 M 0.0 **** -1.04
11221 O 12.203010739847928 38.40288999178264 27.752061084229783 O 0.0 **** 0.0
11222 H 12.521262572420538 39.04740208287613 27.119962397061666 H 0.0 **** 0.52
11223 H 12.912994633706626 38.32027831146654 28.38871337906094 H 0.0 **** 0.52
11224 M 12.334637022145754 38.47481965831471 27.752643761706743 M 0.0 **** -1.04
11225 O 13.380335512655718 49.07418851706215 4.9600383532535455 O 0.0 **** 0.0
11226 H 13.941019024671242 48.34291125985736 4.701008014098763 H 0.0 **** 0.52
11227 H 13.98975756468515 49.78460150334147 5.160406244357868 H 0.0 **** 0.52
11228 M 13.53012399278899 49.07151816326587 4.95252882963629 M 0.0 **** -1.04
11229 O 25.52524225058589 33.45788503087515 17.622788111292028 O 0.0 **** 0.0
11230 H 25.55683859299147 34.134991972528844 16.946950465020983 H 0.0 **** 0.52
11231 H 25.53112358336628 32.633262408697156 17.136792601546066 H 0.0 **** 0.52
11232 M 25.530040482140294 33.439001426859356 17.47405942802168 M 0.0 **** -1.04
11233 O 39.39699117082545 22.786963859235097 7.235852961777953 O 0.0 **** 0.0
11234 H 40.006188709594454 23.13063006307598 7.889306480208459 H 0.0 **** 0.52
11235 H 39.87218730484424 22.067911673741712 6.819462078069401 H 0.0 **** 0.52
11236 M 39.5358075196981 22.73890946219485 7.266200612177294 M 0.0 **** -1.04
11237 O 21.695008519863116 32.93150149597045 34.86772246099449 O 0.0 **** 0.0
11238 H 20.93670441254565 32.365880844619 34.72185631159619 H 0.0 **** 0.52
11239 H 21.432595275075474 33.50343048170656 35.58901662670842 H 0.0 **** 0.52
11240 M 21.56434322133756 32.932308809108186 34.94138413972046 M 0.0 **** -1.04
11241 O 48.09250900185238 49.15120475343924 29.94483645743139 O 0.0 **** 0.0
11242 H 48.83420525745132 49.236815268335214 30.543823391349154 H 0.0 **** 0.52
11243 H 47.3318195250546 49.40649585257299 30.466762163756215 H 0.0 **** 0.52
11244 M 48.090077210964175 49.19484401590952 30.088327046715538 M 0.0 **** -1.04
11245 O 5.8029129424284775 28.920151285561154 36.02554109631103 O 0.0 **** 0.0
11246 H 6.522038427757153 29.049018504043296 36.643990814384196 H 0.0 **** 0.52
11247 H 6.060729945675874 28.153202122286977 35.514123672091955 H 0.0 **** 0.52
11248 M 5.927973859652539 28.838468786346596 36.03924207084372 M 0.0 **** -1.04
11249 O 3.376965316219942 26.763927573631978 39.39405998969768 O 0.0 **** 0.0
11250 H 2.55538047876842 26.277819615710616 39.32386735270246 H 0.0 **** 0.52
11251 H 3.387001158979909 27.33088484525699 38.62290101446774 H 0.0 **** 0.52
11252 M 3.2730769446121646 26.774277384068775 39.286356831254636 M 0.0 **** -1.04
11253 O 21.607832702582233 40.15719451825629 31.51748804910544 O 0.0 **** 0.0
11254 H 21.44769715653025 41.095846605081924 31.41993224091987 H 0.0 **** 0.52
11255 H 20.818081413354644 39.821830962362455 31.94181361292035 H 0.0 **** 0.52
11256 M 21.48623547451481 40.2344232391273 31.55931821534886 M 0.0 **** -1.04
11257 O 14.008460456998783 31.794726739934557 42.410966365521986 O 0.0 **** 0.0
11258 H 14.738989337542108 31.29061371808872 42.76933277731423 H 0.0 **** 0.52
11259 H 13.246775943892388 31.225818961619968 42.52236585980859 H 0.0 **** 0.52
11260 M 14.004472449369729 31.657366696017448 42.47110238647654 M 0.0 **** -1.04
11261 O 43.91507340479009 40.90777705005168 40.554197886182536 O 0.0 **** 0.0
11262 H 43.47294716919467 41.48283661442323 41.178746044078736 H 0.0 **** 0.52
11263 H 43.271084200072316 40.76694018806566 39.860171598885415 H 0.0 **** 0.52
11264 M 43.7760369531779 40.96336311944073 40.54530454547283 M 0.0 **** -1.04
11265 O 24.241126737511944 16.970102422484995 47.306359933391796 O 0.0 **** 0.0
11266 H 24.952974598126264 16.782751632111456 46.694477046740374 H 0.0 **** 0.52
11267 H 24.53823615300428 17.739721621247142 47.791788115992645 H 0.0 **** 0.52
11268 M 24.370286699186295 17.044640227641185 47.290171992300685 M 0.0 **** -1.04
11269 O 30.623329631174087 14.395470217179252 37.41982411605837 O 0.0 **** 0.0
11270 H 31.092332310318845 15.181651295185503 37.140208511736205 H 0.0 **** 0.52
11271 H 30.735424964806878 13.779031302280103 36.696176172276175 H 0.0 **** 0.52
11272 M 30.697717472670902 14.417199866848051 37.291393399375394 M 0.0 **** -1.04
11273 O 14.058747766187679 4.687066948291939 24.661505426870832 O 0.0 **** 0.0
11274 H 14.297376059956221 5.395064254188239 25.259857200986318 H 0.0 **** 0.52
11275 H 14.24958756415338 5.034587180494104 23.790276942223983 H 0.0 **** 0.52
11276 M 14.113725536414805 4.822186806620368 24.626573647569316 M 0.0 **** -1.04
11277 O 2.077888309089151 23.664525934414122 18.91195581483757 O 0.0 **** 0.0
11278 H 1.7512533810670918 24.468332989777036 19.3162230841004 H 0.0 **** 0.52
11279 H 2.858887494256411 23.93806304424119 18.430867722980224 H 0.0 **** 0.52
11280 M 2.1360528038334707 23.802439052811778 18.902122507359593 M 0.0 **** -1.04
11281 O 49.146532262443515 46.5731497673554 22.15143475291682 O 0.0 **** 0.0
11282 H 49.32427704008506 45.64638082020141 22.311855151077648 H 0.0 **** 0.52
11283 H 48.21721721556873 46.60343390400533 21.924092834992912 H 0.0 **** 0.52
11284 M 49.050322100863035 46.45838847233165 22.142867475102463 M 0.0 **** -1.04
11285 O 9.280632027647528 3.068922068694043 42.68482406220494 O 0.0 **** 0.0
11286 H 8.33427644069063 3.159967821076407 42.573687658076835 H 0.0 **** 0.52
11287 H 9.405313173030095 2.996912265027973 43.6311307452348 H 0.0 **** 0.52
11288 M 9.17544691469314 3.071359281013848 42.791736277240815 M 0.0 **** -1.04
11289 O 28.19768247803842 2.052606113111467 12.353730977965688 O 0.0 **** 0.0
11290 H 28.173763707529336 2.8229536435656883 12.92137650813577 H 0.0 **** 0.52
11291 H 27.418784022967635 2.135603886946123 11.803588135985084 H 0.0 **** 0.52
11292 M 28.09491209141793 2.161845125173452 12.355972063325192 M 0.0 **** -1.04
11293 O 28.487852788693782 30.970115869439347 13.081922372998143 O 0.0 **** 0.0
11294 H 27.5505286466241 31.03037416887155 13.266364835335736 H 0.0 **** 0.52
11295 H 28.89781721319629 31.538051074938426 13.73430944173365 H 0.0 **** 0.52
11296 M 28.420344828915844 31.050532846173745 13.189047283511641 M 0.0 **** -1.04
11297 O 20.247071833555836 29.500330503844935 49.38090692914734 O 0.0 **** 0.0
11298 H 20.906698185675605 29.548476202973603 48.68895004268571 H 0.0 **** 0.52
11299 H 20.535406022630177 30.139748541162447 50.032241897531485 H 0.0 **** 0.52
11300 M 20.368423320687263 29.58834774457989 49.375706737285626 M 0.0 **** -1.04
11301 O 25.701462412332784 31.904963893647256 5.217963733769738 O 0.0 **** 0.0
11302 H 25.954828839102316 31.005439239962243 5.425063638279496 H 0.0 **** 0.52
11303 H 25.232562584529816 32.20733657619347 5.99573803781764 H 0.0 **** 0.52
11304 M 25.673871449399496 31.82852067670717 5.344040263934021 M 0.0 **** -1.04
11305 O 10.050823641029503 47.26100593729692 15.326348841155436 O 0.0 **** 0.0
11306 H 9.186198037055526 46.88720644680639 15.49642338353145 H 0.0 **** 0.52
11307 H 10.18495063480033 47.13775264744171 14.386642033479973 H 0.0 **** 0.52
11308 M 9.957310699557702 47.19737685905675 15.227826484435667 M 0.0 **** -1.04
11309 O 22.396500368904416 10.513765953995573 35.70914652497416 O 0.0 **** 0.0
11310 H 22.281717721449603 10.42169618711182 34.763325657031466 H 0.0 **** 0.52
11311 H 22.107685830102003 9.675004345225126 36.06872151069173 H 0.0 **** 0.52
11312 M 22.34483483030101 10.394607765526345 35.634100072289385 M 0.0 **** -1.04
11313 O 0.7028985505709642 28.989788392612866 32.35320476256585 O 0.0 **** 0.0
11314 H 0.4729691588338838 29.901681577328272 32.53156785637157 H 0.0 **** 0.52
11315 H -0.12685990121058666 28.5165847251817 32.414921306633985 H 0.0 **** 0.52
11316 M 0.5672450998855325 29.045946895715225 32.38393789283981 M 0.0 **** -1.04
11317 O 37.340289225214406 10.909333279267685 12.188652764135519 O 0.0 **** 0.0
11318 H 36.545119017055 11.06877337685625 12.697094028504484 H 0.0 **** 0.52
11319 H 37.38528717750336 11.64408072906457 11.576811963589165 H 0.0 **** 0.52
11320 M 37.244257091529946 11.023800007631266 12.175416016545592 M 0.0 **** -1.04
11321 O 22.417503861899743 8.934494656496618 28.9713255150039 O 0.0 **** 0.0
11322 H 22.55437407472944 9.556381381354946 29.6859946602074 H 0.0 **** 0.52
11323 H 23.260527688906745 8.898968478129603 28.519355042855462 H 0.0 **** 0.52
11324 M 22.542942923490767 9.009555932747844 29.004954017909903 M 0.0 **** -1.04
11325 O 15.246376226466388 13.647543762932358 7.037799747054068 O 0.0 **** 0.0
11326 H 15.432921606721537 12.708879689006324 7.0561647397362 H 0.0 **** 0.52
11327 H 14.301382148291067 13.701681894967848 6.895377048931706 H 0.0 **** 0.52
11328 M 15.149285112287084 13.534313416532726 7.021918439090132 M 0.0 **** -1.04
11329 O 17.145887521092078 17.743166228654193 0.24974158179053382 O 0.0 **** 0.0
11330 H 17.798316670168205 17.83796364685346 0.9436989806069287 H 0.0 **** 0.52
11331 H 17.60280093239905 18.01129520102646 -0.5474829153418028 H 0.0 **** 0.52
11332 M 17.287897275156624 17.78962573525268 0.23652226557761108 M 0.0 **** -1.04
11333 O 27.345802525738804 14.497628744874703 22.474316133253875 O 0.0 **** 0.0
11334 H 26.628535041340015 14.769995592725408 23.046655161109133 H 0.0 **** 0.52
11335 H 28.064435531913524 14.290992345602689 23.071892133949508 H 0.0 **** 0.52
11336 M 27.345978160606933 14.506042572354403 22.624079789858342 M 0.0 **** -1.04
11337 O 29.490208611959005 22.712695014928045 20.31312193086428 O 0.0 **** 0.0
11338 H 28.95746507905791 23.108595432160797 21.002814707396322 H 0.0 **** 0.52
11339 H 29.914797567060905 23.454494378968235 19.882206932037906 H 0.0 **** 0.52
11340 M 29.476363504711863 22.858334656040682 20.346248887423922 M 0.0 **** -1.04
11341 O 44.691536508735275 48.44995216427825 4.216211005449331 O 0.0 **** 0.0
11342 H 45.07148581213238 47.61084089932684 4.476516947255931 H 0.0 **** 0.52
11343 H 45.17792632086353 48.70028229656034 3.430725610887727 H 0.0 **** 0.52
11344 M 44.80243947811084 48.37458067595118 4.148981618801656 M 0.0 **** -1.04
11345 O 22.600620850149692 2.532594064265176 46.237099074673445 O 0.0 **** 0.0
11346 H 21.883573325403198 2.237626518294846 46.79840622880944 H 0.0 **** 0.52
11347 H 22.625648216228193 1.8941871943217734 45.52433075724322 H 0.0 **** 0.52
11348 M 22.512033763704263 2.4131108014773517 46.217710432568765 M 0.0 **** -1.04
11349 O 39.82225389448283 23.861249416034536 27.73193400018807 O 0.0 **** 0.0
11350 H 40.76465365319754 23.817861443143137 27.56998137953717 H 0.0 **** 0.52
11351 H 39.72620557154827 24.526777967650652 28.41316436265518 H 0.0 **** 0.52
11352 M 39.93059752262 23.94089105309937 27.798407670206405 M 0.0 **** -1.04
11353 O 25.325380102863406 0.1620002034429134 24.744086804779247 O 0.0 **** 0.0
11354 H 26.05272860535284 0.758283728524997 24.921958867066685 H 0.0 **** 0.52
11355 H 24.946340216357974 -0.017558991403269886 25.6045026544807 H 0.0 **** 0.52
11356 M 25.36996757874343 0.21534590551785474 24.877000653214196 M 0.0 **** -1.04
11357 O 17.708985490601798 20.504145015189774 0.5786508737920899 O 0.0 **** 0.0
11358 H 17.431747983170055 21.053676514248224 -0.15441302447047178 H 0.0 **** 0.52
11359 H 17.50654994255984 19.61129054345995 0.2992608432267423 H 0.0 **** 0.52
11360 M 17.647581033664952 20.460195265200596 0.44904382943805976 M 0.0 **** -1.04
11361 O 18.28146429927196 44.84652449020575 43.27431050618269 O 0.0 **** 0.0
11362 H 17.386317320430763 45.01689238241238 43.567423865744374 H 0.0 **** 0.52
11363 H 18.584907927820723 44.131075812689595 43.83313459879461 H 0.0 **** 0.52
11364 M 18.205718582044156 44.776747593315406 43.38336963498904 M 0.0 **** -1.04
11365 O 38.66325490131739 9.348779926594219 10.875972060230575 O 0.0 **** 0.0
11366 H 38.18923574670197 9.038773280028515 10.104330714524242 H 0.0 **** 0.52
11367 H 38.00678828951518 9.822696551228837 11.386543549275535 H 0.0 **** 0.52
11368 M 38.518538129225625 9.36976260633439 10.842552041570258 M 0.0 **** -1.04
11369 O 10.054194975337925 16.675477986903775 17.019276255175136 O 0.0 **** 0.0
11370 H 9.489036780129446 16.11164990295353 16.491144914008746 H 0.0 **** 0.52
11371 H 10.532092414482728 17.203187751866338 16.379459808231548 H 0.0 **** 0.52
11372 M 10.043024675978838 16.67085468876109 16.869763668592935 M 0.0 **** -1.04
11373 O 2.8574782352753756 2.836973025939567 41.13193697604834 O 0.0 **** 0.0
11374 H 2.267416798306473 2.1124505526539146 41.339600414482994 H 0.0 **** 0.52
11375 H 3.210989459733208 2.6189486627554777 40.269542960720216 H 0.0 **** 0.52
11376 M 2.8271969784000417 2.7163153737546835 41.04812385046357 M 0.0 **** -1.04
11377 O 48.162395952826316 22.976153798495613 43.206333515070654 O 0.0 **** 0.0
11378 H 47.4471726739405 22.768978020094018 42.604866141363054 H 0.0 **** 0.52
11379 H 47.74510400224425 23.46370203234027 43.91653971259682 H 0.0 **** 0.52
11380 M 48.01741997687445 23.012045281248106 43.2202527256674 M 0.0 **** -1.04
11381 O 5.654415705462789 13.803667693998335 49.82273305268533 O 0.0 **** 0.0
11382 H 6.255653089156432 14.541870148270702 49.92172899829869 H 0.0 **** 0.52
11383 H 5.447865841539922 13.540442733232085 50.71954937855337 H 0.0 **** 0.52
11384 M 5.704939868998267 13.864471058215699 49.95021021225078 M 0.0 **** -1.04
11385 O 35.97706899752938 40.19694318067409 20.59469885153642 O 0.0 **** 0.0
11386 H 35.3028490320185 40.84755874957769 20.39885128188053 H 0.0 **** 0.52
11387 H 35.81767040022428 39.4903318556849 19.968982635709672 H 0.0 **** 0.52
11388 M 35.87035485337805 40.18977487246959 20.489529068625437 M 0.0 **** -1.04
11389 O 30.97363519280624 20.752046940653067 44.10708589719982 O 0.0 **** 0.0
11390 H 31.83255482420479 21.168757679587912 44.176644316134656 H 0.0 **** 0.52
11391 H 30.49540126961137 21.057864133975166 44.87779776833611 H 0.0 **** 0.52
11392 M 31.022367541082115 20.844539428601934 44.214651035988155 M 0.0 **** -1.04
11393 O 7.0933502401362345 19.07101673963525 5.47214289441408 O 0.0 **** 0.0
11394 H 6.470988802783203 19.531995410818986 6.034630103490995 H 0.0 **** 0.52
11395 H 7.586771764859211 18.509414000172217 6.069943255417859 H 0.0 **** 0.52
11396 M 7.076844468386542 19.058135624480567 5.620673294121789 M 0.0 **** -1.04
11397 O 2.8787919730963907 13.484673140140876 48.89903622248954 O 0.0 **** 0.0
11398 H 2.957643426552359 12.644687849112568 49.3511826988417 H 0.0 **** 0.52
11399 H 3.7395417221909426 13.891756060930671 48.99713317356662 H 0.0 **** 0.52
11400 M 2.9990726084444077 13.429256152294617 48.969475189605184 M 0.0 **** -1.04
11401 O 19.771850326225803 18.421001716683975 35.161760120584795 O 0.0 **** 0.0
11402 H 20.40163747402714 18.072953736910293 35.79299681884347 H 0.0 **** 0.52
11403 H 18.964849776478488 18.53228623033891 35.66434845228572 H 0.0 **** 0.52
11404 M 19.749164773543953 18.39069282830725 35.306902982145 M 0.0 **** -1.04
11405 O 36.539052785452974 39.35950770741157 38.92535998459272 O 0.0 **** 0.0
11406 H 36.0435468583295 38.57141988801728 39.14811492247865 H 0.0 **** 0.52
11407 H 35.92255542154211 40.07821116957025 39.065446684488805 H 0.0 **** 0.52
11408 M 36.39670189418754 39.350624882640226 38.97180844968049 M 0.0 **** -1.04
11409 O 10.481466377219913 20.777252985789843 4.5053550359184555 O 0.0 **** 0.0
11410 H 10.311743376968149 20.830463421559916 3.5648275025933955 H 0.0 **** 0.52
11411 H 9.704869189018213 21.16216464491613 4.911516384517384 H 0.0 **** 0.52
11412 M 10.360325463936505 20.833338288569834 4.436949038418732 M 0.0 **** -1.04
11413 O 5.331221390451519 12.953788569558343 33.204963815572285 O 0.0 **** 0.0
11414 H 5.523075480302067 13.693751571283505 33.78104916218126 H 0.0 **** 0.52
11415 H 6.093439732155233 12.894094642098487 32.62904033455684 H 0.0 **** 0.52
11416 M 5.453355066271668 13.040871805149024 33.20498390828923 M 0.0 **** -1.04
11417 O 22.96147625033286 1.12591371009237 31.31034374550946 O 0.0 **** 0.0
11418 H 22.753265954650768 0.1964438847128145 31.405011118577665 H 0.0 **** 0.52
11419 H 22.116208427549992 1.5463008940801823 31.152149746607876 H 0.0 **** 0.52
11420 M 22.826617958949083 1.060745133813307 31.302211349810655 M 0.0 **** -1.04
11421 O 49.698505780100575 39.13338591159186 30.662154027455905 O 0.0 **** 0.0
11422 H 49.45820923998167 40.0220415685816 30.39990157912982 H 0.0 **** 0.52
11423 H 50.65029261640228 39.16111004816883 30.75993906869364 H 0.0 **** 0.52
11424 M 49.789585540659694 39.25069431235279 30.641100143529044 M 0.0 **** -1.04
11425 O 37.57620299587868 48.33559275594778 9.889549237732306 O 0.0 **** 0.0
11426 H 38.41398478499119 47.87773315245426 9.82088765438303 H 0.0 **** 0.52
11427 H 37.05862588223673 48.00002551621106 9.157608167417642 H 0.0 **** 0.52
11428 M 37.61719327078641 48.23402421899205 9.787062152357207 M 0.0 **** -1.04
11429 O 34.185446823067885 29.73632733519719 5.267598484673883 O 0.0 **** 0.0
11430 H 33.716055976458 29.95428741447344 6.072827964877618 H 0.0 **** 0.52
11431 H 33.7265267740403 30.223136261707253 4.583027650541965 H 0.0 **** 0.52
11432 M 34.06661154035286 29.826545929959323 5.283044245877903 M 0.0 **** -1.04
11433 O 31.235373008578563 25.762008086164396 36.90189961463226 O 0.0 **** 0.0
11434 H 31.525107826060477 24.903730685960866 37.2111582344074 H 0.0 **** 0.52
11435 H 32.029237261890295 26.175392802130705 36.562603344511466 H 0.0 **** 0.52
11436 M 31.37408696288871 25.70505653426889 36.898054297174404 M 0.0 **** -1.04
11437 O 40.60696563044684 24.22322659594623 9.41964286141279 O 0.0 **** 0.0
11438 H 39.87756982075813 24.84283902490148 9.436683586582996 H 0.0 **** 0.52
11439 H 40.79392542643244 24.047207470161453 10.341755524541085 H 0.0 **** 0.52
11440 M 40.53752700345985 24.28001204420923 9.539866244461685 M 0.0 **** -1.04
11441 O 12.586773946048925 21.718011806747228 43.031518668055256 O 0.0 **** 0.0
11442 H 13.289171559759811 21.117407459136714 43.28079697621744 H 0.0 **** 0.52
11443 H 12.538799609628516 21.648649828711683 42.07804297018896 H 0.0 **** 0.52
11444 M 12.670548694751107 21.632247771086227 42.94137246532317 M 0.0 **** -1.04
11445 O 11.97503286790037 12.815191389618173 24.993114866291346 O 0.0 **** 0.0
11446 H 12.823540170114686 12.644781086507484 24.58418389707087 H 0.0 **** 0.52
11447 H 12.057621248805564 12.455277652462389 25.87621724227893 H 0.0 **** 0.52
11448 M 12.09422444270531 12.74730284268179 25.05381453712556 M 0.0 **** -1.04
11449 O 49.40467897413653 7.894586053668469 21.582273526210756 O 0.0 **** 0.0
11450 H 49.858596403660485 7.072280091728281 21.76666483428553 H 0.0 **** 0.52
11451 H 48.87933159122077 8.059520431333475 22.365240565380574 H 0.0 **** 0.52
11452 M 49.39553464914041 7.8104345284241745 21.706107895654128 M 0.0 **** -1.04
11453 O 40.76905471936913 20.721511643368046 48.58413354710879 O 0.0 **** 0.0
11454 H 41.476252627546046 20.666862509640502 47.941393658553935 H 0.0 **** 0.52
11455 H 41.01553165986703 21.45269998072053 49.15056246299055 H 0.0 **** 0.52
11456 M 40.891137054729334 20.808116806872828 48.57436421379895 M 0.0 **** -1.04
11457 O 30.522531508786795 23.11236966144204 32.69247310379146 O 0.0 **** 0.0
11458 H 30.433305113013073 22.24418270678625 33.08556151541603 H 0.0 **** 0.52
11459 H 30.112811371706385 23.029206646984875 31.831402910530763 H 0.0 **** 0.52
11460 M 30.458659369523204 22.990584871790187 32.63256512179122 M 0.0 **** -1.04
11461 O 28.111960113157863 46.367066402179915 1.1354975576304025 O 0.0 **** 0.0
11462 H 28.268796617766505 46.21342891881478 0.20381899881454446 H 0.0 **** 0.52
11463 H 27.172886713867456 46.21990360927197 1.248247656900879 H 0.0 **** 0.52
11464 M 28.01182406537876 46.32856075640256 1.0306646247350342 M 0.0 **** -1.04
11465 O 49.259691993172325 49.91374282774797 19.530522563236893 O 0.0 **** 0.0
11466 H 49.63095429177475 49.375936104483934 20.229918969417213 H 0.0 **** 0.52
11467 H 48.372993464984376 50.116490474266605 19.82866352202315 H 0.0 **** 0.52
11468 M 49.19370996112113 49.87085139429999 19.658220103198172 M 0.0 **** -1.04
11469 O 26.33736735510723 0.1717471246228907 40.572893970008685 O 0.0 **** 0.0
11470 H 26.842828541565503 0.8417048598150092 40.112574485769514 H 0.0 **** 0.52
11471 H 25.49371301533312 0.1548944971304668 40.12101893603613 H 0.0 **** 0.52
11472 M 26.294074174122738 0.25535208178989394 40.456122054261186 M 0.0 **** -1.04
11473 O 29.261454239242845 45.93590264969665 3.5988758988069676 O 0.0 **** 0.0
11474 H 29.11038580312527 46.20875162777009 2.6939116258219986 H 0.0 **** 0.52
11475 H 29.878644940293597 46.58094357575192 3.944168567261122 H 0.0 **** 0.52
11476 M 29.321123495782416 46.05340400598788 3.527230887551916 M 0.0 **** -1.04
11477 O 8.345668569566108 46.40057330677062 8.151001118949385 O 0.0 **** 0.0
11478 H 8.745067581457562 45.7532831980274 7.569861057338872 H 0.0 **** 0.52
11479 H 7.529610414616371 45.992325405846266 8.440157402269065 H 0.0 **** 0.52
11480 M 8.29233115402073 46.265451074063705 8.113623555074467 M 0.0 **** -1.04
11481 O 18.066107537649657 15.904725869248807 47.04903226660668 O 0.0 **** 0.0
11482 H 17.25009144738779 16.401044281586785 46.98566257778901 H 0.0 **** 0.52
11483 H 18.473083150734197 16.21432066763054 47.85819934964592 H 0.0 **** 0.52
11484 M 18.013745248934555 16.007893336140114 47.14450311096108 M 0.0 **** -1.04
11485 O 8.102277846023796 49.15443206208887 23.996737666224416 O 0.0 **** 0.0
11486 H 8.979877029410744 48.77227853419814 23.99379818583539 H 0.0 **** 0.52
11487 H 7.552487725958301 48.48978382478545 24.411708891628695 H 0.0 **** 0.52
11488 M 8.144241853896645 49.02042863786225 24.04948246088493 M 0.0 **** -1.04
11489 O 4.22894958529433 49.49616891479138 21.22051214091914 O 0.0 **** 0.0
11490 H 4.016725141086404 49.88792034357469 20.373328872262 H 0.0 **** 0.52
11491 H 3.378605817216112 49.31553164721691 21.62115462061329 H 0.0 **** 0.52
11492 M 4.092926931087987 49.52319391549523 21.163349702792253 M 0.0 **** -1.04
11493 O 39.53145457053451 45.90029543116011 7.447350386325303 O 0.0 **** 0.0
11494 H 40.47908786969636 46.021523323680555 7.387989409851935 H 0.0 **** 0.52
11495 H 39.38935676811105 44.989640109743796 7.188999979171069 H 0.0 **** 0.52
11496 M 39.634573517041694 45.79923791334869 7.406679028147256 M 0.0 **** -1.04
11497 O 27.17012059172495 38.13869635836117 49.411032898911934 O 0.0 **** 0.0
11498 H 26.988481681733376 37.236523368655014 49.67432018412217 H 0.0 **** 0.52
11499 H 27.817151618450062 38.448059841939795 50.04496802029722 H 0.0 **** 0.52
11500 M 27.22969683966679 38.06280897121803 49.52588875385966 M 0.0 **** -1.04
11501 O 7.3797068481607795 12.20931218888374 4.026435316538878 O 0.0 **** 0.0
11502 H 7.587289218748708 12.799542623382644 4.750842436514175 H 0.0 **** 0.52
11503 H 7.796302394922137 11.381126698880264 4.264732634842909 H 0.0 **** 0.52
11504 M 7.459610108669722 12.17885059209232 4.149673338163491 M 0.0 **** -1.04
11505 O 46.1150283199232 11.215876003825505 26.436241146196867 O 0.0 **** 0.0
11506 H 45.718369255831064 11.817589308444301 25.8062957316532 H 0.0 **** 0.52
11507 H 46.527769248946655 11.785656510963305 27.08525833878576 H 0.0 **** 0.52
11508 M 46.11708700820697 11.365841087741451 26.438682473426283 M 0.0 **** -1.04
11509 O 28.622204819051213 44.24737575985087 29.46025499469307 O 0.0 **** 0.0
11510 H 27.79172415515765 43.82060109545856 29.249553868566785 H 0.0 **** 0.52
11511 H 29.0466626726547 44.378280129998586 28.61235872721592 H 0.0 **** 0.52
11512 M 28.570228425789583 44.20949988971118 29.324740975751567 M 0.0 **** -1.04
11513 O 31.785814108730317 1.3879167767162899 15.857672936069553 O 0.0 **** 0.0
11514 H 30.932347410434446 1.1007692729667728 16.18227717346592 H 0.0 **** 0.52
11515 H 32.24305545063325 0.5770387898517642 15.634879948552788 H 0.0 **** 0.52
11516 M 31.735093015050683 1.247356245983096 15.870706250111942 M 0.0 **** -1.04
11517 O 10.422290130109898 13.768706410193516 36.218837569186576 O 0.0 **** 0.0
11518 H 9.82083234915487 13.31552725184369 36.80968871894616 H 0.0 **** 0.52
11519 H 10.10888441907033 14.67303098277182 36.20462680625608 H 0.0 **** 0.52
11520 M 10.305175825482571 13.826458834407006 36.2926549844768 M 0.0 **** -1.04
11521 O 36.104168918289325 16.439311914781513 11.744787103206278 O 0.0 **** 0.0
11522 H 35.698747279057244 16.985681613860137 12.41809507448825 H 0.0 **** 0.52
11523 H 36.39711712132995 15.658091534312419 12.21394026808926 H 0.0 **** 0.52
11524 M 36.08977054484508 16.409248082159863 11.891036615476402 M 0.0 **** -1.04
11525 O 25.89638255813124 28.72312396719595 46.561228701082385 O 0.0 **** 0.0
11526 H 25.84449956712697 29.193875969826315 45.729404839434935 H 0.0 **** 0.52
11527 H 26.03434948483989 29.4074895075318 47.21608601475957 H 0.0 **** 0.52
11528 M 25.907402128510547 28.870994427110865 46.53857498793844 M 0.0 **** -1.04
11529 O 28.766442083818394 9.510024738481606 10.486777270729807 O 0.0 **** 0.0
11530 H 28.729631369090697 9.907257204505742 9.616674113577657 H 0.0 **** 0.52
11531 H 29.51534453841499 9.929318393802255 10.910529324273584 H 0.0 **** 0.52
11532 M 28.857598960687344 9.614550372826779 10.429638583317278 M 0.0 **** -1.04
11533 O 17.27289859025035 17.034682830322563 3.9842876619109404 O 0.0 **** 0.0
11534 H 17.993738227703705 17.623227146216106 3.760155143400361 H 0.0 **** 0.52
11535 H 17.36361572999856 16.301481773774714 3.3756712523996555 H 0.0 **** 0.52
11536 M 17.376788179271877 17.016164886100974 3.8776859323765223 M 0.0 **** -1.04
11537 O 42.247556235806066 13.593534261924395 29.069642722522573 O 0.0 **** 0.0
11538 H 43.12212943060451 13.224763910279055 28.94570687307069 H 0.0 **** 0.52
11539 H 41.65228140379306 12.901572020404945 28.78143277408529 H 0.0 **** 0.52
11540 M 42.28330987731708 13.4577473308413 29.016883425969652 M 0.0 **** -1.04
11541 O 41.255472362470165 33.27068744077069 39.1919637536792 O 0.0 **** 0.0
11542 H 40.40359723698654 33.69348673206548 39.08343474793626 H 0.0 **** 0.52
11543 H 41.33698918066607 32.69619356422762 38.43068779347136 H 0.0 **** 0.52
11544 M 41.15685626031356 33.25126897577355 39.0806179827241 M 0.0 **** -1.04
11545 O 22.028254388429836 46.50148660634797 31.168910247701508 O 0.0 **** 0.0
11546 H 22.068358670120652 47.28404485146541 31.71865776496052 H 0.0 **** 0.52
11547 H 22.607302107182754 45.87415932419635 31.601799891173123 H 0.0 **** 0.52
11548 M 22.10751348952594 46.52135752631361 31.29470050767878 M 0.0 **** -1.04
11549 O 17.676762555466347 36.85003811754484 1.582396510346564 O 0.0 **** 0.0
11550 H 17.292864446983202 37.013867857756765 0.7209955170368171 H 0.0 **** 0.52
11551 H 18.427483473299006 37.44219225039782 1.627125110397233 H 0.0 **** 0.52
11552 M 17.723720833520023 36.9468143450511 1.4778519981381875 M 0.0 **** -1.04
11553 O 28.269952970316126 44.1999322560361 44.612204570194415 O 0.0 **** 0.0
11554 H 29.028908729686826 43.88123362964789 45.10071852717992 H 0.0 **** 0.52
11555 H 27.86252836807799 43.40906357817424 44.258991592881195 H 0.0 **** 0.52
11556 M 28.314952743834528 44.05789395622172 44.62952489300079 M 0.0 **** -1.04
11557 O 23.68295657845527 23.849291748671334 46.183783654550425 O 0.0 **** 0.0
11558 H 22.754967937634976 23.630024904025554 46.26737869258919 H 0.0 **** 0.52
11559 H 23.745887841283647 24.3120734370766 45.34825911925495 H 0.0 **** 0.52
11560 M 23.57221814183709 23.880464246963744 46.08752716398187 M 0.0 **** -1.04
11561 O 30.536025950623333 48.61483652325836 30.8396322632286 O 0.0 **** 0.0
11562 H 30.005969117988226 48.19381902454635 31.51639976425224 H 0.0 **** 0.52
11563 H 31.03936015475697 47.9000726494132 30.449764100095628 H 0.0 **** 0.52
11564 M 30.532604890304405 48.469442021880425 30.876358910725628 M 0.0 **** -1.04
11565 O 17.98553948939126 49.686027769576256 21.13862311782715 O 0.0 **** 0.0
11566 H 17.474411494614756 48.877044880917936 21.161511089578468 H 0.0 **** 0.52
11567 H 18.52028144951037 49.65457064885077 21.931901243808042 H 0.0 **** 0.52
11568 M 17.98856236988041 49.57844106943926 21.24310223750261 M 0.0 **** -1.04
11569 O 39.61991846247824 18.829007565697342 45.885496221104546 O 0.0 **** 0.0
11570 H 39.27204633267344 18.401904727967363 46.66830948164046 H 0.0 **** 0.52
11571 H 39.23146088444162 19.703767674201593 45.896688525261204 H 0.0 **** 0.52
11572 M 39.52565891699361 18.886313693376543 45.987138800830955 M 0.0 **** -1.04
11573 O 38.07883169702737 24.14322479584424 25.74260463212705 O 0.0 **** 0.0
11574 H 38.91232187499349 24.21190888849337 26.208228157166495 H 0.0 **** 0.52
11575 H 38.28752216501977 24.3844100667844 24.84010446213216 H 0.0 **** 0.52
11576 M 38.21224363526346 24.18289197525146 25.686679402302133 M 0.0 **** -1.04
11577 O 16.110124595513287 14.171679712152999 28.257590420303682 O 0.0 **** 0.0
11578 H 15.56635455747592 13.516719508825997 28.695276591112798 H 0.0 **** 0.52
11579 H 16.189988209299205 13.854866996846951 27.357879782943357 H 0.0 **** 0.52
11580 M 16.05073922152297 14.04728050751768 28.19844592011007 M 0.0 **** -1.04
11581 O 6.438253171015724 8.696403263762612 8.579384575017436 O 0.0 **** 0.0
11582 H 7.257986411988377 8.740059834313968 8.087085380298184 H 0.0 **** 0.52
11583 H 6.2725043180569315 7.759822736512696 8.686963350178537 H 0.0 **** 0.52
11584 M 6.52197134853531 8.582098000937378 8.530135980090733 M 0.0 **** -1.04
11585 O 25.665224962292896 0.8337585207203699 29.97568914795961 O 0.0 **** 0.0
11586 H 24.789594764180237 0.8604666381466556 30.361420201206652 H 0.0 **** 0.52
11587 H 26.242192657449408 1.1574080791737957 30.667489706117845 H 0.0 **** 0.52
11588 M 25.626991999907872 0.8786086800036496 30.113627368408252 M 0.0 **** -1.04
11589 O 19.265550456741668 12.948295709488814 24.855413989485893 O 0.0 **** 0.0
11590 H 19.526104744416553 12.267059284504285 24.235528731764497 H 0.0 **** 0.52
11591 H 20.040638620836557 13.50326228798045 24.941893415311313 H 0.0 **** 0.52
11592 M 19.398125502411226 12.932131531765949 24.787130969120266 M 0.0 **** -1.04
11593 O 31.086110336419786 40.56305646908862 2.6957991073777023 O 0.0 **** 0.0
11594 H 30.877648377722828 40.434794270340205 3.621175185662552 H 0.0 **** 0.52
11595 H 31.912285061668307 40.09659249887396 2.5690162219731723 H 0.0 **** 0.52
11596 M 31.16518527056804 40.48692412493173 2.7980285836974503 M 0.0 **** -1.04
11597 O 29.920713161344054 27.03281301749654 0.08851121180871502 O 0.0 **** 0.0
11598 H 30.109982363309513 27.249755104943965 -0.8243653351564078 H 0.0 **** 0.52
11599 H 30.47120444188137 26.27190545595607 0.2734604021897553 H 0.0 **** 0.52
11600 M 30.01541131556013 26.96317867432964 -0.004673117044234232 M 0.0 **** -1.04
11601 O 45.253623803605606 4.720792921531121 34.845881818764944 O 0.0 **** 0.0
11602 H 44.364836268415765 4.9610122643479855 35.10776078818509 H 0.0 **** 0.52
11603 H 45.26634672413549 4.846026608511636 33.89699634184415 H 0.0 **** 0.52
11604 M 45.14147608983083 4.767575020257389 34.75793667653497 M 0.0 **** -1.04
11605 O 15.698334006966302 15.44716282843771 24.538913489572245 O 0.0 **** 0.0
11606 H 15.136587068309701 15.42995223156113 23.764076199421186 H 0.0 **** 0.52
11607 H 15.158420211294036 15.851883486207324 25.217826404979547 H 0.0 **** 0.52
11608 M 15.557308132598747 15.496768528569513 24.526634686565092 M 0.0 **** -1.04
11609 O 7.813253028325462 26.13597932062268 10.470035251907882 O 0.0 **** 0.0
11610 H 6.9735163542137215 26.03708105182556 10.91868922959072 H 0.0 **** 0.52
11611 H 7.833498923940617 25.417760553578507 9.837594349323128 H 0.0 **** 0.52
11612 M 7.708347505606788 26.031377646006096 10.44650851650902 M 0.0 **** -1.04
11613 O 35.81773510296902 42.51120946705693 46.33015707568337 O 0.0 **** 0.0
11614 H 35.34330954246357 43.28064169679453 46.64499470476593 H 0.0 **** 0.52
11615 H 36.55602580338486 42.42132392511366 46.932714777718815 H 0.0 **** 0.52
11616 M 35.851512527269676 42.59820016995861 46.447595163909845 M 0.0 **** -1.04
11617 O 42.38699830450922 14.757901826017727 21.403832507811952 O 0.0 **** 0.0
11618 H 41.79272938630357 15.500212876625936 21.294067660457475 H 0.0 **** 0.52
11619 H 42.40182813122219 14.599892646442642 22.34778223499015 H 0.0 **** 0.52
11620 M 42.31282201515038 14.832699992100368 21.510618734665563 M 0.0 **** -1.04
11621 O 25.692663110125196 35.12278140061724 35.0788748738682 O 0.0 **** 0.0
11622 H 25.21704133423424 34.35275323437925 34.76731543983862 H 0.0 **** 0.52
11623 H 26.421046358144494 34.765636796936896 35.586945558200824 H 0.0 **** 0.52
11624 M 25.72501972726799 34.97848936586195 35.10403083227295 M 0.0 **** -1.04
11625 O 30.07554873090581 47.49417697605588 24.763742684130836 O 0.0 **** 0.0
11626 H 30.551425336946178 47.09442780923188 25.491732838514565 H 0.0 **** 0.52
11627 H 29.234874780451136 47.75412583735367 25.140469150909528 H 0.0 **** 0.52
11628 M 30.028850142161684 47.47628072422725 24.905159875125374 M 0.0 **** -1.04
11629 O 42.07580741401391 6.189467760380367 27.431183351304412 O 0.0 **** 0.0
11630 H 41.375065898466495 6.7790605409600815 27.15266816892867 H 0.0 **** 0.52
11631 H 41.64033001070038 5.348768762780807 27.571947183749387 H 0.0 **** 0.52
11632 M 41.930357008783595 6.157322339930516 27.41354952065295 M 0.0 **** -1.04
11633 O 24.06096879150567 5.033888434412745 23.66508096394565 O 0.0 **** 0.0
11634 H 24.811417681689377 4.50251042377068 23.930959233412576 H 0.0 **** 0.52
11635 H 24.35992508981799 5.496788874883499 22.882408741692934 H 0.0 **** 0.52
11636 M 24.195305420415085 5.025122347028635 23.59892517835405 M 0.0 **** -1.04
11637 O 43.59108550017027 40.19908111139152 45.006910458522235 O 0.0 **** 0.0
11638 H 43.32036415284059 39.51945255584558 45.62419677825968 H 0.0 **** 0.52
11639 H 44.36327353367879 40.59575068998678 45.41015637933578 H 0.0 **** 0.52
11640 M 43.65527963072161 40.16285851656528 45.13755125817073 M 0.0 **** -1.04
11641 O 36.89728492741114 45.85506639306201 34.818309340844166 O 0.0 **** 0.0
11642 H 36.62112414584207 46.73911317550857 34.576597888442194 H 0.0 **** 0.52
11643 H 36.45139173058493 45.68266285442154 35.64757714918872 H 0.0 **** 0.52
11644 M 36.804853484450355 45.94616532142444 34.893524368002204 M 0.0 **** -1.04
11645 O 33.061894343369445 41.12703226789286 26.633712885845938 O 0.0 **** 0.0
11646 H 32.50401246399895 41.901536921143105 26.70539457403391 H 0.0 **** 0.52
11647 H 33.42029433173936 41.17063690740193 25.74721664704091 H 0.0 **** 0.52
11648 M 33.03635817947267 41.23175968259099 26.52940631060699 M 0.0 **** -1.04
11649 O 7.187817135088158 44.630659820577556 0.7595512665011057 O 0.0 **** 0.0
11650 H 6.4453655293097 45.13790787041936 0.431381734679789 H 0.0 **** 0.52
11651 H 7.562214104380406 45.17426930385438 1.452763829031845 H 0.0 **** 0.52
11652 M 7.1407012833422066 44.76518288239795 0.8062817697484022 M 0.0 **** -1.04
11653 O 39.89651526148771 4.309923455333337 3.3830811082916683 O 0.0 **** 0.0
11654 H 40.59664072487225 3.9763458402429124 2.8220296074328064 H 0.0 **** 0.52
11655 H 39.09273892641625 4.134531924009304 2.893786320470739 H 0.0 **** 0.52
11656 M 39.883246936654174 4.244768879195931 3.248623293872188 M 0.0 **** -1.04
11657 O 31.431881082864127 44.587022570577865 47.70318025144468 O 0.0 **** 0.0
11658 H 30.882370293314366 44.326958459370495 48.44252599497166 H 0.0 **** 0.52
11659 H 31.244183798305453 45.5175579142056 47.58028574625394 H 0.0 **** 0.52
11660 M 31.33750994593807 44.672851647708654 47.78209358519231 M 0.0 **** -1.04
11661 O 8.579313834274899 9.439553534143482 4.243352944249111 O 0.0 **** 0.0
11662 H 8.211420577829003 8.751937355462228 3.68831528684742 H 0.0 **** 0.52
11663 H 9.512665664777062 9.445581870173463 4.031113037682218 H 0.0 **** 0.52
11664 M 8.65169895977553 9.35230192975958 4.145131396207539 M 0.0 **** -1.04
11665 O 43.45163463583018 40.7485605294277 7.758248717589986 O 0.0 **** 0.0
11666 H 44.171116132887875 40.67687153617028 7.131003067651676 H 0.0 **** 0.52
11667 H 43.68520292576002 40.14281046152661 8.461626793681539 H 0.0 **** 0.52
11668 M 43.57363760944083 40.661840017598735 7.767994354731115 M 0.0 **** -1.04
11669 O 23.76256608487777 7.881766947082681 7.1978244371195785 O 0.0 **** 0.0
11670 H 24.32679156553165 8.647883024177574 7.302436979669366 H 0.0 **** 0.52
11671 H 22.873669218372147 8.236853883069102 7.195741717175913 H 0.0 **** 0.52
11672 M 23.721003468513782 8.025295299609269 7.210950020153746 M 0.0 **** -1.04
11673 O 41.063223660724674 7.823756580868315 46.25368394488879 O 0.0 **** 0.0
11674 H 40.580141512783335 8.646797111858906 46.3275994481054 H 0.0 **** 0.52
11675 H 41.63972648866099 7.814406338113641 47.017742058448555 H 0.0 **** 0.52
11676 M 41.07518258836116 7.9279189590472665 46.36095532419324 M 0.0 **** -1.04
11677 O 1.2019813259168899 3.5710584956257563 47.57585725799544 O 0.0 **** 0.0
11678 H 2.0684786744184436 3.9715674174994575 47.50511800208896 H 0.0 **** 0.52
11679 H 0.742702466014677 3.851309212424681 46.7841820465056 H 0.0 **** 0.52
11680 M 1.2541106079432893 3.6582049326041357 47.46545812838198 M 0.0 **** -1.04
11681 O 26.888713569611298 26.692548341172706 6.80073099952606 O 0.0 **** 0.0
11682 H 26.06982728639641 26.213249130616227 6.674533566639333 H 0.0 **** 0.52
11683 H 26.892858706882635 26.919935340982175 7.73051978107938 H 0.0 **** 0.52
11684 M 26.784416634052338 26.66030005029436 6.90360105708136 M 0.0 **** -1.04
11685 O 34.330951158733306 10.977418389496398 3.602535515509909 O 0.0 **** 0.0
11686 H 34.14864950523942 11.891860179443118 3.8188483695855866 H 0.0 **** 0.52
11687 H 33.46957457174888 10.560841042618376 3.5756597717238225 H 0.0 **** 0.52
11688 M 34.19734754876754 11.041151496895061 3.626786024812257 M 0.0 **** -1.04
11689 O 10.83521493568982 10.128318437870206 26.61769294970148 O 0.0 **** 0.0
11690 H 10.107719097240704 10.288277573158396 26.016533827034934 H 0.0 **** 0.52
11691 H 10.466112901116773 10.282025976456872 27.48738642901118 H 0.0 **** 0.52
11692 M 10.694835892557364 10.168471745462014 26.652068503292014 M 0.0 **** -1.04
11693 O 34.427882255315446 12.785020767020326 40.61976862364422 O 0.0 **** 0.0
11694 H 33.64155689333498 12.542155520588258 41.108579959206615 H 0.0 **** 0.52
11695 H 34.10369916981456 13.31524799194566 39.89176258627115 H 0.0 **** 0.52
11696 M 34.28572309826493 12.821806407079805 40.58914792342212 M 0.0 **** -1.04
11697 O 47.652138154740165 8.341874283891524 2.2816439657096197 O 0.0 **** 0.0
11698 H 46.92565701785231 8.905706022323624 2.016038769788075 H 0.0 **** 0.52
11699 H 47.47961979907559 7.507067179898339 1.8462546007291962 H 0.0 **** 0.52
11700 M 47.537055178966206 8.307185495783004 2.191908113807685 M 0.0 **** -1.04
11701 O 22.72921518344768 32.76205692441958 4.703126904208674 O 0.0 **** 0.0
11702 H 22.23907975206411 33.447202747942555 4.248625450635344 H 0.0 **** 0.52
11703 H 23.637131201598777 32.89577484788086 4.431033277507046 H 0.0 **** 0.52
11704 M 22.782695830735843 32.86688188478365 4.610113554767292 M 0.0 **** -1.04
11705 O 31.55818037430871 7.921952179408173 36.04450021136403 O 0.0 **** 0.0
11706 H 30.881936892513945 7.467717338065185 36.54708805487363 H 0.0 **** 0.52
11707 H 32.298016109432744 7.99355678915974 36.6476128054244 H 0.0 **** 0.52
11708 M 31.56632183782201 7.872970376445103 36.18604411558939 M 0.0 **** -1.04
11709 O 20.703362499935043 0.5844717623438253 43.17035420021526 O 0.0 **** 0.0
11710 H 21.03978797916135 0.6505943452764242 42.27666899182564 H 0.0 **** 0.52
11711 H 20.52288131870965 1.4889635973495539 43.42638061019711 H 0.0 **** 0.52
11712 M 20.723324917360465 0.7087227110591457 43.088726084673674 M 0.0 **** -1.04
11713 O 40.25346724466701 6.802095603178614 25.13263454800459 O 0.0 **** 0.0
11714 H 41.07904217767651 6.728789880971476 24.65380235065635 H 0.0 **** 0.52
11715 H 39.6020991426301 6.413328748679852 24.54884670953132 H 0.0 **** 0.52
11716 M 40.27576755058287 6.742944403274819 24.99660601048393 M 0.0 **** -1.04
11717 O 38.24567413322483 31.24506310793548 47.15004312664032 O 0.0 **** 0.0
11718 H 38.65034767718995 31.94521103545327 46.63792801775912 H 0.0 **** 0.52
11719 H 38.76518035698117 30.467438654598865 46.945979321122294 H 0.0 **** 0.52
11720 M 38.36398101342214 31.23514452131387 47.058362949838646 M 0.0 **** -1.04
11721 O 32.695168753183026 36.58209741827454 0.07409684698249915 O 0.0 **** 0.0
11722 H 31.846445690859493 36.87279119939737 0.4078565287443524 H 0.0 **** 0.52
11723 H 33.3294354821044 36.914310984965105 0.7093672934792717 H 0.0 **** 0.52
11724 M 32.66771570653361 36.6618375794755 0.19814476979990048 M 0.0 **** -1.04
11725 O 37.51645803358123 7.135540683163347 12.381852188501677 O 0.0 **** 0.0
11726 H 36.70560591977478 7.513847063735709 12.721898406911365 H 0.0 **** 0.52
11727 H 37.6439605895704 6.338768114617448 12.896755836695085 H 0.0 **** 0.52
11728 M 37.428980972694404 7.081972475596796 12.491296407036545 M 0.0 **** -1.04
11729 O 11.532182311775301 37.17869902952067 16.997200189349208 O 0.0 **** 0.0
11730 H 11.64081357183806 37.032199833462975 16.0575375095175 H 0.0 **** 0.52
11731 H 11.666063659963747 38.11970005186712 17.110437453670922 H 0.0 **** 0.52
11732 M 11.563226826682765 37.28040536077968 16.8914073724239 M 0.0 **** -1.04
11733 O 32.58503187501461 32.54946715671969 16.642933339110613 O 0.0 **** 0.0
11734 H 32.71998965129532 31.697816784190213 17.05851169929653 H 0.0 **** 0.52
11735 H 32.783348943626635 32.39957206622586 15.718579554492933 H 0.0 **** 0.52
11736 M 32.627694930912696 32.42125746307641 16.577803776073864 M 0.0 **** -1.04
11737 O 48.49368185607131 25.551411626138783 27.564721310605478 O 0.0 **** 0.0
11738 H 48.102572059635214 24.723770808567398 27.844493402220962 H 0.0 **** 0.52
11739 H 49.338726747833604 25.58127573122156 28.01331517441605 H 0.0 **** 0.52
11740 M 48.55179084689834 25.44928610132617 27.657961048125607 M 0.0 **** -1.04
11741 O 35.08250316294494 8.960461457997168 35.426198518606036 O 0.0 **** 0.0
11742 H 34.34002893530013 8.954221900330545 34.82211037566273 H 0.0 **** 0.52
11743 H 35.84054094157401 9.148600677950744 34.87283690975096 H 0.0 **** 0.52
11744 M 35.084495674744595 8.983746953156675 35.2780308657296 M 0.0 **** -1.04
11745 O 41.973797053686525 29.50873854864624 45.10211556720733 O 0.0 **** 0.0
11746 H 41.01899132583606 29.49023784810286 45.16716617159913 H 0.0 **** 0.52
11747 H 42.16583901013834 30.311781829098646 44.61789472073664 H 0.0 **** 0.52
11748 M 41.87615415772304 29.609170068883948 45.048456874709366 M 0.0 **** -1.04
11749 O 29.994049982339217 39.62075569271858 48.193575523768885 O 0.0 **** 0.0
11750 H 30.35683972235771 38.942676700640206 47.62364396094977 H 0.0 **** 0.52
11751 H 29.34146367264966 40.06520777261527 47.652444956681414 H 0.0 **** 0.52
11752 M 29.956953234323933 39.5908482879215 48.0513456505003 M 0.0 **** -1.04
11753 O 47.92811641176837 30.83329944622755 42.27692388442875 O 0.0 **** 0.0
11754 H 47.85525821914872 30.820170615633142 41.3225932080888 H 0.0 **** 0.52
11755 H 48.74013698783187 30.36154651696966 42.46213064522634 H 0.0 **** 0.52
11756 M 48.02273845964964 30.77122832776457 42.1784667303133 M 0.0 **** -1.04
11757 O 39.34215495931142 7.395842286529529 44.04635053580481 O 0.0 **** 0.0
11758 H 39.8405381547105 7.492061013879066 44.85788299040175 H 0.0 **** 0.52
11759 H 38.4757782361219 7.745939494587191 44.25383908557975 H 0.0 **** 0.52
11760 M 39.29504803361901 7.452976250378967 44.17679815927363 M 0.0 **** -1.04
11761 O 34.4250105458664 25.88831489645164 42.850418936134695 O 0.0 **** 0.0
11762 H 33.63610361405918 26.220721858018038 43.27862523101826 H 0.0 **** 0.52
11763 H 34.20829820437913 25.883945353912246 41.9180859536685 H 0.0 **** 0.52
11764 M 34.296278617672414 25.930308565359287 42.78588467818487 M 0.0 **** -1.04
11765 O 1.4589075176399078 30.045886156697144 5.463167893799575 O 0.0 **** 0.0
11766 H 1.2468000910655448 29.112521216300287 5.471505625746698 H 0.0 **** 0.52
11767 H 2.383498757729903 30.079698748124205 5.217781647147747 H 0.0 **** 0.52
11768 M 1.5501139156898063 29.93073212529327 5.432822783169101 M 0.0 **** -1.04
11769 O 48.63017494515728 42.786818200814814 48.66056807460754 O 0.0 **** 0.0
11770 H 49.42306579828663 43.31972073563114 48.60085154319165 H 0.0 **** 0.52
11771 H 48.86878386954266 41.95490541539587 48.251647915689766 H 0.0 **** 0.52
11772 M 48.76221957153217 42.748541021947936 48.60057615013839 M 0.0 **** -1.04
11773 O 40.575964378021624 4.64078426971804 12.223833783113996 O 0.0 **** 0.0
11774 H 40.82720590385069 5.100657164893498 13.024847680905276 H 0.0 **** 0.52
11775 H 40.260793253660495 5.330618837470354 11.63986040266873 H 0.0 **** 0.52
11776 M 40.56778004216024 4.787961209729062 12.25161728158913 M 0.0 **** -1.04
11777 O 48.707295435845744 44.80084735238012 7.34925601563058 O 0.0 **** 0.0
11778 H 48.42627907423985 43.9313481273044 7.064249337202881 H 0.0 **** 0.52
11779 H 49.3758686966877 44.631407543988104 8.012979640177036 H 0.0 **** 0.52
11780 M 48.75690755665729 44.66785026736244 7.397737431372903 M 0.0 **** -1.04
11781 O 39.5151711305236 21.427604009687172 28.872012700602703 O 0.0 **** 0.0
11782 H 39.66838597670463 22.24757085241506 28.402536882592013 H 0.0 **** 0.52
11783 H 40.34156602525823 21.25026958663986 29.321292033920212 H 0.0 **** 0.52
11784 M 39.640573214326736 21.509869218640198 28.869427012541223 M 0.0 **** -1.04
11785 O 30.928442592368746 13.255798649867067 4.934707109640419 O 0.0 **** 0.0
11786 H 31.136709807210888 12.555864873341264 5.553532498680566 H 0.0 **** 0.52
11787 H 31.724328292184452 13.786133873248751 4.89547826817089 H 0.0 **** 0.52
11788 M 31.056987038032847 13.234088632837661 5.008902059195475 M 0.0 **** -1.04
11789 O 29.790743685018107 25.516339616909743 28.693521246775163 O 0.0 **** 0.0
11790 H 29.434329649744043 26.226339988678205 28.159575436453526 H 0.0 **** 0.52
11791 H 30.59968187494271 25.264064664409016 28.248318922549444 H 0.0 **** 0.52
11792 M 29.848672324082543 25.574934762422668 28.56817784304185 M 0.0 **** -1.04
11793 O 44.15618498624771 30.09543071567586 1.8545233683457107 O 0.0 **** 0.0
11794 H 43.25224531560584 29.925458821030134 2.119536007811617 H 0.0 **** 0.52
11795 H 44.33410668038057 30.983512834939106 2.1641736006854932 H 0.0 **** 0.52
11796 M 44.06324486675089 30.18735730559115 1.9280872804186104 M 0.0 **** -1.04
11797 O 20.02796591188086 40.21378241500523 48.452637648548404 O 0.0 **** 0.0
11798 H 20.35008997420208 40.0843039620556 49.344657918166895 H 0.0 **** 0.52
11799 H 19.074649980498087 40.19439828192143 48.53655738058561 H 0.0 **** 0.52
11800 M 19.947165416621527 40.19472603017918 48.577570373505495 M 0.0 **** -1.04
11801 O 6.74783054764621 11.51006066449276 39.29406892392925 O 0.0 **** 0.0
11802 H 7.146743039255476 10.643586720912712 39.214564266440775 H 0.0 **** 0.52
11803 H 5.81179488160803 11.355962270294226 39.16632472647467 H 0.0 **** 0.52
11804 M 6.679071917071397 11.37941444958097 39.26753805968191 M 0.0 **** -1.04
11805 O 36.16320671406221 6.747937115901081 36.44586169609879 O 0.0 **** 0.0
11806 H 35.758444004210595 7.572735554934127 36.17734061953415 H 0.0 **** 0.52
11807 H 35.89276566787291 6.633296568922617 37.35687643452332 H 0.0 **** 0.52
11808 M 36.07677131206786 6.838846115219546 36.52810907554029 M 0.0 **** -1.04
11809 O 19.649962810785247 5.444314068474931 22.010733430969275 O 0.0 **** 0.0
11810 H 20.517534728254333 5.596269068395053 21.63595701453167 H 0.0 **** 0.52
11811 H 19.81281995889797 4.896420185834408 22.778534686752433 H 0.0 **** 0.52
11812 M 19.781870286560512 5.393628892466083 22.061045317164666 M 0.0 **** -1.04
11813 O 8.614867000605713 30.53760671719805 46.30663539223295 O 0.0 **** 0.0
11814 H 9.436089447053938 30.666442996524545 46.78121199699518 H 0.0 **** 0.52
11815 H 8.104662825948687 31.32614017277681 46.491391893231764 H 0.0 **** 0.52
11816 M 8.6546805333993 30.65504123230381 46.391038386802826 M 0.0 **** -1.04
11817 O 21.06097828116509 14.849808927694655 9.671494922660727 O 0.0 **** 0.0
11818 H 20.596125718491308 14.671866048231065 10.489099414343727 H 0.0 **** 0.52
11819 H 21.123364686524596 13.997419548318575 9.24048697827621 H 0.0 **** 0.52
11820 M 21.009457506492097 14.717913998562423 9.720983880290518 M 0.0 **** -1.04
11821 O 33.82740300921025 14.103610215705462 13.691609776866969 O 0.0 **** 0.0
11822 H 32.98679217177826 14.514297173266836 13.489280426384894 H 0.0 **** 0.52
11823 H 34.459259613381356 14.821926455319877 13.659860591551919 H 0.0 **** 0.52
11824 M 33.8006801263157 14.248136768791845 13.661644575036114 M 0.0 **** -1.04
11825 O 24.593666381289964 2.780473446588685 48.00555446285877 O 0.0 **** 0.0
11826 H 23.943444483349705 2.523163944973952 47.35192391114532 H 0.0 **** 0.52
11827 H 24.302884988455336 2.356715621335287 48.81308473108353 H 0.0 **** 0.52
11828 M 24.47320590630973 2.693287278682903 48.025255445028534 M 0.0 **** -1.04
11829 O 28.56806279224844 17.55345494845436 35.55807650927648 O 0.0 **** 0.0
11830 H 28.574403883832336 17.823922233122985 34.63990650003703 H 0.0 **** 0.52
11831 H 29.434488057702588 17.172963579044023 35.70216889401713 H 0.0 **** 0.52
11832 M 28.67978833484499 17.53937025768559 35.458984384809085 M 0.0 **** -1.04
11833 O 3.4671925406133486 34.08855781888756 7.959742614959951 O 0.0 **** 0.0
11834 H 2.792614067490536 34.47948835556501 7.4044530222935405 H 0.0 **** 0.52
11835 H 2.994450019204076 33.4597685530019 8.505056222399578 H 0.0 **** 0.52
11836 M 3.320321051647794 34.05810930132845 7.958465174755674 M 0.0 **** -1.04
11837 O 7.2697430852183205 39.64732018638001 33.64880720176314 O 0.0 **** 0.0
11838 H 7.388208856539486 39.218376615078256 32.80133969503629 H 0.0 **** 0.52
11839 H 6.516532205312686 39.20388516263993 34.03902435977783 H 0.0 **** 0.52
11840 M 7.188487761389364 39.53564461407071 33.590273358511276 M 0.0 **** -1.04
11841 O 44.05057407762094 31.659940963479258 23.170741747424998 O 0.0 **** 0.0
11842 H 43.91870007165244 31.867946744170116 22.245771009505518 H 0.0 **** 0.52
11843 H 43.913505833191564 30.71421803312792 23.225963144301517 H 0.0 **** 0.52
11844 M 44.01614579014762 31.565503806214494 23.05940239110663 M 0.0 **** -1.04
11845 O 26.879398697023873 27.42957397604682 9.687069334135833 O 0.0 **** 0.0
11846 H 27.689612652031826 27.357568822639962 10.191646780175708 H 0.0 **** 0.52
11847 H 26.268101867705838 26.840542556720955 10.12932033920148 H 0.0 **** 0.52
11848 M 26.904862537368018 27.344953800189053 9.808275154370364 M 0.0 **** -1.04
11849 O 45.12439946113042 10.306616553683483 12.139681765991035 O 0.0 **** 0.0
11850 H 45.46263861127564 9.700448175389909 11.480605237076162 H 0.0 **** 0.52
11851 H 45.559507052311716 10.045805359673125 12.951400286876087 H 0.0 **** 0.52
11852 M 45.223396813337246 10.195632352250925 12.159221543098397 M 0.0 **** -1.04
11853 O 14.827021256191827 14.523306052926612 20.20434094592469 O 0.0 **** 0.0
11854 H 14.444384790316093 14.867610503248791 21.011355750896506 H 0.0 **** 0.52
11855 H 15.662604543798466 14.982549338015898 20.119940287911213 H 0.0 **** 0.52
11856 M 14.885003592478427 14.6261698057613 20.296844595109572 M 0.0 **** -1.04
11857 O 14.521563164058655 44.11118615317156 23.633344867887402 O 0.0 **** 0.0
11858 H 15.384490194482936 43.710274194867495 23.7375353717369 H 0.0 **** 0.52
11859 H 14.48322868717974 44.36178452155641 22.71032832248491 H 0.0 **** 0.52
11860 M 14.627121816108335 44.091944385637575 23.5285254310419 M 0.0 **** -1.04
11861 O 20.79240290466359 3.218795813981862 43.93813250160122 O 0.0 **** 0.0
11862 H 21.522185209803098 3.3814149741486474 44.53579700917498 H 0.0 **** 0.52
11863 H 20.02552561246813 3.561933822719246 44.39680951142751 H 0.0 **** 0.52
11864 M 20.78765470654531 3.2835385326875235 44.073357222223 M 0.0 **** -1.04
11865 O 49.86910790473425 14.21518418946572 17.607493408583046 O 0.0 **** 0.0
11866 H 49.54743740855869 14.769970114259182 16.89688139736548 H 0.0 **** 0.52
11867 H 49.138255551936425 13.629142713563654 17.804061753976878 H 0.0 **** 0.52
11868 M 49.734371558820584 14.211182961264122 17.541688970528135 M 0.0 **** -1.04
11869 O 3.51976272891757 43.15499302575233 20.110792968774415 O 0.0 **** 0.0
11870 H 3.1653883562612037 43.76380858546805 19.46272527403686 H 0.0 **** 0.52
11871 H 3.8752208843852998 42.432956063982 19.592582487606833 H 0.0 **** 0.52
11872 M 3.5199013976675246 43.14049934132086 19.961495002195566 M 0.0 **** -1.04
11873 O 31.354223450644813 31.641055692283427 36.26146605273934 O 0.0 **** 0.0
11874 H 30.570436941406374 31.566620527242602 36.805861971069895 H 0.0 **** 0.52
11875 H 31.174551037287966 31.083345609895357 35.504561536290254 H 0.0 **** 0.52
11876 M 31.230889021585277 31.560133610599063 36.23426212020335 M 0.0 **** -1.04
11877 O 35.39937739081857 23.786164189944632 11.07052651498957 O 0.0 **** 0.0
11878 H 35.9301300519819 23.321410073052295 10.423584927489044 H 0.0 **** 0.52
11879 H 35.783593929236574 23.545661316971195 11.913595547525247 H 0.0 **** 0.52
11880 M 35.516505001704715 23.695882484605995 11.095634252586821 M 0.0 **** -1.04
11881 O 33.52606134766324 27.164471783171237 36.3081144411044 O 0.0 **** 0.0
11882 H 34.203439012938304 26.728526452745886 36.82516484896916 H 0.0 **** 0.52
11883 H 33.30536370681129 27.947216472388497 36.812923481476936 H 0.0 **** 0.52
11884 M 33.584522242596336 27.208866475985996 36.43892468685186 M 0.0 **** -1.04
11885 O 37.32176303447741 8.875668257221022 45.20113576112614 O 0.0 **** 0.0
11886 H 37.61927331910085 9.166135948494855 46.063309693867225 H 0.0 **** 0.52
11887 H 37.1267299659042 9.685295452696565 44.72923066214624 H 0.0 **** 0.52
11888 M 37.33488174920893 9.01649408124927 45.251094491579934 M 0.0 **** -1.04
11889 O 24.129161070591135 17.218289692434844 39.25945696454728 O 0.0 **** 0.0
11890 H 24.46390930046448 17.622590307407236 40.05990220870262 H 0.0 **** 0.52
11891 H 24.193906631376006 16.27701575044435 39.42082586732786 H 0.0 **** 0.52
11892 M 24.180301541110715 17.149550604593298 39.38258164022911 M 0.0 **** -1.04
11893 O 12.403803671662628 15.878837778586103 2.0205195113737986 O 0.0 **** 0.0
11894 H 11.788991861257252 15.46616869622521 1.413939982969147 H 0.0 **** 0.52
11895 H 12.148803150306534 15.548937424096167 2.882127993085568 H 0.0 **** 0.52
11896 M 12.292456604321062 15.783779027587087 2.0531666782025297 M 0.0 **** -1.04
11897 O 22.01162844961263 37.44799772281802 18.562726505541054 O 0.0 **** 0.0
11898 H 21.224845224214803 36.97046678470073 18.825718151680437 H 0.0 **** 0.52
11899 H 21.682647427926256 38.26671862765211 18.191650728036624 H 0.0 **** 0.52
11900 M 21.8687971539689 37.491674828834334 18.548890001041556 M 0.0 **** -1.04
11901 O 16.21228420446531 28.52983040348202 3.616609400479149 O 0.0 **** 0.0
11902 H 15.44607693494502 29.07151075187083 3.4275634356944735 H 0.0 **** 0.52
11903 H 16.904563483344823 28.891973180465765 3.0635909526979788 H 0.0 **** 0.52
11904 M 16.202820201957106 28.64553030722135 3.5216154466017926 M 0.0 **** -1.04
11905 O 1.9855391418963888 36.07858358485034 46.786222915289336 O 0.0 **** 0.0
11906 H 1.115890881494777 36.40877056347648 47.011870113241706 H 0.0 **** 0.52
11907 H 1.8710472038418346 35.66653420587829 45.929873029857674 H 0.0 **** 0.52
11908 M 1.859556770071112 36.06810424585479 46.70548536220849 M 0.0 **** -1.04
11909 O 9.096657933421481 45.82919165432248 46.04657754491096 O 0.0 **** 0.0
11910 H 8.390533294514519 45.85399990843368 46.692333256159934 H 0.0 **** 0.52
11911 H 9.423383531215094 44.93020463862978 46.082647929501995 H 0.0 **** 0.52
11912 M 9.048090428298508 45.7172862302279 46.13385977238797 M 0.0 **** -1.04
11913 O 11.657394030117956 46.74015603685562 1.625370776282665 O 0.0 **** 0.0
11914 H 11.870277781589962 47.55602023235352 1.1722988887305377 H 0.0 **** 0.52
11915 H 12.507430707384998 46.3537474477164 1.8359779864595538 H 0.0 **** 0.52
11916 M 11.79346153929555 46.795131466957606 1.5943321250665718 M 0.0 **** -1.04
11917 O 33.456826966930606 46.942301350603515 33.75907717126455 O 0.0 **** 0.0
11918 H 33.79227223581731 46.05148215993197 33.65834901862883 H 0.0 **** 0.52
11919 H 32.997587332918634 47.1200544973483 32.938265260773214 H 0.0 **** 0.52
11920 M 33.44098000923501 46.85101995638436 33.64110796890567 M 0.0 **** -1.04
11921 O 3.1541982081470934 37.13594812964111 0.7106223056522627 O 0.0 **** 0.0
11922 H 2.4498228837033125 37.76607512938927 0.5588858975965989 H 0.0 **** 0.52
11923 H 3.2857562258714665 36.71399756051557 -0.138423541251548 H 0.0 **** 0.52
11924 M 3.080870521180863 37.16259739531056 0.5825097217720123 M 0.0 **** -1.04
11925 O 9.910739311950932 30.22346003768142 3.8647317440734668 O 0.0 **** 0.0
11926 H 10.463546403494485 29.46636420369329 4.058222061065109 H 0.0 **** 0.52
11927 H 10.479976820176109 30.817491875037263 3.375523927084849 H 0.0 **** 0.52
11928 M 10.054375377277626 30.202585993537134 3.8268765497202963 M 0.0 **** -1.04
11929 O 12.072899943921172 41.28112957243564 8.584939967072094 O 0.0 **** 0.0
11930 H 12.485520437337428 41.074902961749416 9.423654772687053 H 0.0 **** 0.52
11931 H 11.509137571820105 42.03150958394118 8.772906898426681 H 0.0 **** 0.52
11932 M 12.0535519123912 41.35078857707534 8.716368501863988 M 0.0 **** -1.04
11933 O 11.294709346905021 49.043702013280814 19.061614937144363 O 0.0 **** 0.0
11934 H 11.746687495677007 49.49921941534706 19.77186000140393 H 0.0 **** 0.52
11935 H 11.934026261069038 49.01491059194651 18.349804929828544 H 0.0 **** 0.52
11936 M 11.434408784393886 49.098328771519775 19.061414471158567 M 0.0 **** -1.04
11937 O 34.07578990605783 26.5444939604883 16.52071458661854 O 0.0 **** 0.0
11938 H 34.02244249972768 26.881635076056437 17.414983853231462 H 0.0 **** 0.52
11939 H 33.16739295417749 26.36741321412301 16.276406636921166 H 0.0 **** 0.52
11940 M 33.95267404243599 26.564983756235517 16.603917756100614 M 0.0 **** -1.04
11941 O 6.061510343475322 4.365146285676275 33.234263662235975 O 0.0 **** 0.0
11942 H 5.662160690564895 5.230189264261206 33.32618621691898 H 0.0 **** 0.52
11943 H 5.322796978412445 3.7739792659744182 33.08916721342513 H 0.0 **** 0.52
11944 M 5.915823334495867 4.40020599097209 33.22745678959153 M 0.0 **** -1.04
11945 O 2.0868820430916486 20.242034096747616 13.247009840515648 O 0.0 **** 0.0
11946 H 2.18348312044526 20.725641548223905 12.426631621821356 H 0.0 **** 0.52
11947 H 2.2847968742145213 19.33460918379285 13.0154086225311 H 0.0 **** 0.52
11948 M 2.1245842578815797 20.187779939721302 13.112342708778614 M 0.0 **** -1.04
11949 O 2.8288516444618184 30.424322915187755 18.411475519071466 O 0.0 **** 0.0
11950 H 2.1369053304631787 30.157164897900877 19.016509931635174 H 0.0 **** 0.52
11951 H 3.6315914436673067 30.068845787993087 18.792886160402087 H 0.0 **** 0.52
11952 M 2.8430344415797184 30.34461768440357 18.537753434700285 M 0.0 **** -1.04
11953 O 17.554500577847605 18.340551975164896 22.04341169097356 O 0.0 **** 0.0
11954 H 17.000605807933795 18.707276512928456 22.732571936538477 H 0.0 **** 0.52
11955 H 18.414802944349617 18.73269396694937 22.192855469934877 H 0.0 **** 0.52
11956 M 17.593724456597528 18.437696094877918 22.150762974226208 M 0.0 **** -1.04
11957 O 24.90174312593216 4.5182426635253865 12.99760164384682 O 0.0 **** 0.0
11958 H 25.154372544665808 4.3399212244395695 13.90347618958134 H 0.0 **** 0.52
11959 H 24.25100921717704 3.8466550436676896 12.793288568131558 H 0.0 **** 0.52
11960 M 24.850781050529875 4.409443641161954 13.087410152800345 M 0.0 **** -1.04
11961 O 40.3996177899758 8.119961941557335 4.605344278166584 O 0.0 **** 0.0
11962 H 39.64018325106209 8.450894297162662 4.125789528738807 H 0.0 **** 0.52
11963 H 40.08722207936415 7.319147941611099 5.026457070017948 H 0.0 **** 0.52
11964 M 40.262409778212664 8.05981082060179 4.597862348014019 M 0.0 **** -1.04
11965 O 0.8956875365817007 21.545911248044483 44.86247876339564 O 0.0 **** 0.0
11966 H 0.9165918242154445 21.89495234740682 45.75352431045606 H 0.0 **** 0.52
11967 H 1.3064750402293726 22.22598118458185 44.32863683114726 H 0.0 **** 0.52
11968 M 0.9509501804340587 21.677650284041412 44.9082055898443 M 0.0 **** -1.04
11969 O 25.38090964545229 39.931945868290285 49.57192485227702 O 0.0 **** 0.0
11970 H 25.88428580844439 40.565860363990815 50.08280000299509 H 0.0 **** 0.52
11971 H 25.99047998938178 39.210387515123955 49.41698487226314 H 0.0 **** 0.52
11972 M 25.523380684450817 39.92072587275578 49.61748874172758 M 0.0 **** -1.04
11973 O 31.21122013800349 33.333547805966774 12.775530147064629 O 0.0 **** 0.0
11974 H 30.927619649272497 32.68881138489183 12.127367484716597 H 0.0 **** 0.52
11975 H 32.00307637395419 32.95627423280949 13.158751011282925 H 0.0 **** 0.52
11976 M 31.276282966261444 33.20271723548475 12.741614650910192 M 0.0 **** -1.04
11977 O 44.08319194559408 41.906626935592655 10.913835372224035 O 0.0 **** 0.0
11978 H 43.812395521075864 41.02198023200641 11.159392816101132 H 0.0 **** 0.52
11979 H 44.76047905885023 42.13563990267851 11.550281332897832 H 0.0 **** 0.52
11980 M 44.13522805292874 41.82269770808842 11.026742325428899 M 0.0 **** -1.04
11981 O 11.058199823295112 20.711073191889266 44.94202443602841 O 0.0 **** 0.0
11982 H 11.646256754958848 21.1203478218523 44.30727036032641 H 0.0 **** 0.52
11983 H 10.609492630334415 21.44516291581856 45.361552134876995 H 0.0 **** 0.52
11984 M 11.07603882113932 20.857438636686457 44.91447343687692 M 0.0 **** -1.04
11985 O 38.255134155585175 26.386182507453295 44.59651628797188 O 0.0 **** 0.0
11986 H 38.38322146478804 26.38583342554615 43.647926310611716 H 0.0 **** 0.52
11987 H 37.31866273631938 26.547035912938995 44.712173848676514 H 0.0 **** 0.52
11988 M 38.15165036386929 26.406729308571943 44.48989046210452 M 0.0 **** -1.04
11989 O 30.77980600180837 16.51599314357594 4.996773327083918 O 0.0 **** 0.0
11990 H 31.686646424153675 16.82019401873194 5.033262957959949 H 0.0 **** 0.52
11991 H 30.538583517144676 16.590691571559617 4.073485298235389 H 0.0 **** 0.52
11992 M 30.86501357923299 16.564497591618192 4.883251940770337 M 0.0 **** -1.04
11993 O 15.183072169901948 22.034208403999763 22.876095913193144 O 0.0 **** 0.0
11994 H 14.933199466800517 22.626663366630236 23.585172400533526 H 0.0 **** 0.52
11995 H 15.15758322084605 21.162761414440002 23.2712664125272 H 0.0 **** 0.52
11996 M 15.147822338369195 21.998493231618298 23.017453353279144 M 0.0 **** -1.04
11997 O 8.956188794897422 2.92634308391877 12.185762830976742 O 0.0 **** 0.0
11998 H 9.453037876876314 2.1203565099950437 12.326318143835692 H 0.0 **** 0.52
11999 H 9.070199010201877 3.422950153814144 12.996079164123628 H 0.0 **** 0.52
12000 M 9.034386242732628 2.886738956228722 12.307486294265289 M 0.0 **** -1.04
12001 O 5.047207771628457 10.094242175096376 24.976175231886995 O 0.0 **** 0.0
12002 H 5.301214239657045 11.007123839046898 24.840692554943818 H 0.0 **** 0.52
12003 H 5.614269582538213 9.789980667261261 25.684761610708776 H 0.0 **** 0.52
12004 M 5.152314909319494 10.172152849227885 25.049540189514936 M 0.0 **** -1.04
12005 O 40.09058936870327 15.27369237769251 29.390758528892967 O 0.0 **** 0.0
12006 H 39.442394435208826 14.617134566268499 29.135799047829355 H 0.0 **** 0.52
12007 H 40.8632294861091 14.765149072720503 29.637010728924214 H 0.0 **** 0.52
12008 M 40.10651999151885 15.12454468428808 29.389643645560398 M 0.0 **** -1.04
12009 O 44.66891715880894 30.82486431324725 46.61728440963892 O 0.0 **** 0.0
12010 H 44.20467528145164 30.718374251148884 47.44756661420206 H 0.0 **** 0.52
12011 H 44.19777934693473 31.52600333120327 46.167104715016634 H 0.0 **** 0.52
12012 M 44.54917622061122 30.90098676954251 46.665942590945725 M 0.0 **** -1.04
12013 O 8.488631753933838 29.02022001219419 18.928723105836884 O 0.0 **** 0.0
12014 H 8.949403063852998 28.95187613063368 18.092512292012458 H 0.0 **** 0.52
12015 H 9.153764851386278 29.327153731388268 19.54485383671167 H 0.0 **** 0.52
12016 M 8.632761617346063 29.05076286222153 18.900549633616347 M 0.0 **** -1.04
12017 O 5.517468018504623 32.274351487630554 37.25135382815401 O 0.0 **** 0.0
12018 H 4.859412165990172 32.36289744677994 36.56189683282935 H 0.0 **** 0.52
12019 H 6.351931810537231 32.24004858441018 36.78367588433525 H 0.0 **** 0.52
12020 M 5.540050363270623 32.281295123889215 37.103225706187374 M 0.0 **** -1.04
12021 O 19.49355732076079 36.362536554322894 19.77776930520419 O 0.0 **** 0.0
12022 H 18.681542435071556 36.861396682425074 19.68833290999325 H 0.0 **** 0.52
12023 H 19.696208608284135 36.399504164186006 20.712539155663915 H 0.0 **** 0.52
12024 M 19.41555161094927 36.43112982000208 19.885982870940072 M 0.0 **** -1.04
12025 O 9.855934749453994 6.6965062886246605 32.63175660790785 O 0.0 **** 0.0
12026 H 10.791361009717072 6.521117559448337 32.733955076559795 H 0.0 **** 0.52
12027 H 9.79414102430097 7.650662137640799 32.58708212423246 H 0.0 **** 0.52
12028 M 9.9677706193091 6.796198249395422 32.63912025194129 M 0.0 **** -1.04
12029 O 24.941645772083252 13.993198714611278 2.5873031423379658 O 0.0 **** 0.0
12030 H 23.996845133527046 13.928263903991091 2.448148474427839 H 0.0 **** 0.52
12031 H 25.071482766864996 14.8706328929865 2.947134876403638 H 0.0 **** 0.52
12032 M 24.837320158114384 14.097208466173925 2.615553094353615 M 0.0 **** -1.04
12033 O 49.26645998466497 40.781921499386755 46.96171641204661 O 0.0 **** 0.0
12034 H 48.786333837853995 39.95578634092169 47.018364475057005 H 0.0 **** 0.52
12035 H 50.1578343417834 40.52571146243639 46.72499532167847 H 0.0 **** 0.52
12036 M 49.31910475987438 40.64336802168356 46.93866458852853 M 0.0 **** -1.04
12037 O 0.45824429137221756 17.086883154518127 21.899328192113703 O 0.0 **** 0.0
12038 H -0.28465010172941874 16.588973663466522 21.558118759740953 H 0.0 **** 0.52
12039 H 0.08506719383042594 17.628446032110276 22.59479705185268 H 0.0 **** 0.52
12040 M 0.3153729380577488 17.09247046362512 21.94467751070881 M 0.0 **** -1.04
12041 O 3.5613702449835785 19.058101629081374 23.6242831716754 O 0.0 **** 0.0
12042 H 3.991287205760152 18.54895450913767 24.31142929752298 H 0.0 **** 0.52
12043 H 3.7547904174548705 18.58240623075033 22.81648935555119 H 0.0 **** 0.52
12044 M 3.6411652581169562 18.932030110180335 23.60883885262207 M 0.0 **** -1.04
12045 O 19.291975008521447 24.252946890928005 26.325855124301373 O 0.0 **** 0.0
12046 H 18.377757736495948 24.277483024737386 26.043306705070105 H 0.0 **** 0.52
12047 H 19.37395857848074 24.98492922648893 26.937173009750214 H 0.0 **** 0.52
12048 M 19.18543873757807 24.349790437715658 26.367941921376797 M 0.0 **** -1.04
12049 O 6.0695105625128525 39.58289585660173 40.7393712285578 O 0.0 **** 0.0
12050 H 5.758071281639281 38.9891824407687 40.05618878558358 H 0.0 **** 0.52
12051 H 6.9973714512919996 39.71044060279349 40.5417960976196 H 0.0 **** 0.52
12052 M 6.148420984776749 39.52322098938408 40.626622910549614 M 0.0 **** -1.04
12053 O 45.038833120278454 24.162694837670188 13.610848821690837 O 0.0 **** 0.0
12054 H 45.338981971072414 23.604483498011632 12.893534431372473 H 0.0 **** 0.52
12055 H 45.03482967255751 23.588216387992745 14.376477164940795 H 0.0 **** 0.52
12056 M 45.07674356927327 24.01769634288263 13.61703351734672 M 0.0 **** -1.04
12057 O 18.255625916258538 23.56102154495251 13.414397955657861 O 0.0 **** 0.0
12058 H 18.915399858300326 22.979186795113463 13.791751386962233 H 0.0 **** 0.52
12059 H 18.501478740486867 23.636662142585834 12.492409374364456 H 0.0 **** 0.52
12060 M 18.371557319108824 23.49622270399057 13.344678204595851 M 0.0 **** -1.04
12061 O 10.42150633290533 23.272910561703306 20.06536220561328 O 0.0 **** 0.0
12062 H 9.87138355787738 23.24740740952414 20.848269698506712 H 0.0 **** 0.52
12063 H 11.050635508873086 23.973639750164576 20.23684089870883 H 0.0 **** 0.52
12064 M 10.431620265764685 23.35934858829457 20.187535768052662 M 0.0 **** -1.04
12065 O 25.45733421183329 39.620539073439275 42.1341720975433 O 0.0 **** 0.0
12066 H 26.097984530008915 40.00713844321826 42.73111093296345 H 0.0 **** 0.52
12067 H 24.626640219896228 40.03037350209787 42.37544502823911 H 0.0 **** 0.52
12068 M 25.43300629434687 39.72249242649305 42.24147424470664 M 0.0 **** -1.04
12069 O 15.646665600600036 40.03981453888139 25.73558134723686 O 0.0 **** 0.0
12070 H 14.806535448606185 40.49850781028678 25.73236859710478 H 0.0 **** 0.52
12071 H 15.41354198094161 39.11230428280653 25.7756700471721 H 0.0 **** 0.52
12072 M 15.5092750580876 39.97980067067738 25.74030179534428 M 0.0 **** -1.04
12073 O 42.95871766776416 49.31165474401996 2.041655079984949 O 0.0 **** 0.0
12074 H 43.172742836813484 48.94258547796493 2.898515243295485 H 0.0 **** 0.52
12075 H 42.01432374442783 49.464067443808645 2.0750998214863756 H 0.0 **** 0.52
12076 M 42.86522152574497 49.28392011964755 2.15562541324951 M 0.0 **** -1.04
12077 O 16.17204906470421 45.22076283549581 7.3398415296667965 O 0.0 **** 0.0
12078 H 15.23326502597626 45.38399424154444 7.430772164852465 H 0.0 **** 0.52
12079 H 16.306562842432882 44.362815584582656 7.742409725126859 H 0.0 **** 0.52
12080 M 16.069092643147197 45.131830831562866 7.403015915699836 M 0.0 **** -1.04
12081 O 21.130086983894483 17.217477906722447 37.60797712289583 O 0.0 **** 0.0
12082 H 21.794809740521778 16.664244193445846 37.19772795124369 H 0.0 **** 0.52
12083 H 21.568772886413583 17.594109738294556 38.37082203652042 H 0.0 **** 0.52
12084 M 21.271336850654023 17.194871087443065 37.653113735667645 M 0.0 **** -1.04
12085 O 33.8647341878244 8.046798463946907 6.8775539061578215 O 0.0 **** 0.0
12086 H 33.06297671812356 8.4257148019785 6.517225005398231 H 0.0 **** 0.52
12087 H 34.55805215385438 8.647354413820963 6.603929116849706 H 0.0 **** 0.52
12088 M 33.85085256123878 8.172183360807537 6.79639977950621 M 0.0 **** -1.04
12089 O 33.78101234502449 32.351778667275084 48.38745102325499 O 0.0 **** 0.0
12090 H 33.55968424255374 31.531417084595255 47.94671491778943 H 0.0 **** 0.52
12091 H 32.962951034207975 32.84872500262947 48.39449006802077 H 0.0 **** 0.52
12092 M 33.64795779297319 32.31037743456078 48.3319317730246 M 0.0 **** -1.04
12093 O 39.88599896347092 43.02524236683213 25.015676938967168 O 0.0 **** 0.0
12094 H 39.52931462343164 42.797333970480466 25.874200746179703 H 0.0 **** 0.52
12095 H 39.12774424105442 43.32008168040816 24.511346344157918 H 0.0 **** 0.52
12096 M 39.743272615169396 43.03381026716024 25.06101734114328 M 0.0 **** -1.04
12097 O 33.20369777034975 40.411658917563415 29.26196431939111 O 0.0 **** 0.0
12098 H 32.7908704673657 40.750634312611304 28.467673928115516 H 0.0 **** 0.52
12099 H 32.64977526446916 39.67684055992447 29.52547980607922 H 0.0 **** 0.52
12100 M 33.079942440560245 40.36098612639979 29.194018649791275 M 0.0 **** -1.04
12101 O 24.718610078496425 26.28522985916899 34.52489396266486 O 0.0 **** 0.0
12102 H 24.96639728776611 25.80145727136681 35.31279860038643 H 0.0 **** 0.52
12103 H 24.786688640716093 27.20603583673698 34.777302340065035 H 0.0 **** 0.52
12104 M 24.75904469834523 26.3411761347245 34.65806752257123 M 0.0 **** -1.04
12105 O 33.76668726369994 39.56296919896579 35.187741562314756 O 0.0 **** 0.0
12106 H 34.25637822733099 40.3586680842333 35.395816735301594 H 0.0 **** 0.52
12107 H 33.961380950421514 39.39558396694697 34.265621956535654 H 0.0 **** 0.52
12108 M 33.854296298731576 39.64340149010289 35.09633487238304 M 0.0 **** -1.04
12109 O 22.22440975336698 33.95910286350737 29.993090947555245 O 0.0 **** 0.0
12110 H 21.84112510916841 33.09452429560833 29.845357400094002 H 0.0 **** 0.52
12111 H 21.80617855948727 34.2732319200605 30.79473616489409 H 0.0 **** 0.52
12112 M 22.121804846701185 33.88863842219023 30.076799688221755 M 0.0 **** -1.04
12113 O 40.52683346747009 14.742190294464578 35.51041649586601 O 0.0 **** 0.0
12114 H 39.77328890140515 14.176477202710831 35.34199106407283 H 0.0 **** 0.52
12115 H 41.28687977982038 14.176901106956258 35.37255847449905 H 0.0 **** 0.52
12116 M 40.527665393059934 14.59740849176122 35.471207932276066 M 0.0 **** -1.04
12117 O 15.988271846116781 42.40976020847573 15.837858581893641 O 0.0 **** 0.0
12118 H 16.878494160515658 42.58547621327068 15.533134711137748 H 0.0 **** 0.52
12119 H 15.830596054545358 41.49514275897826 15.603674299882059 H 0.0 **** 0.52
12120 M 16.08204671935746 42.315170937751944 15.768872034787407 M 0.0 **** -1.04
12121 O 1.4054199312848843 6.630997150597976 25.665704433330532 O 0.0 **** 0.0
12122 H 1.1456339329585308 7.369588363698053 26.216361198520275 H 0.0 **** 0.52
12123 H 1.9581113534731676 7.019804899671365 24.987774534010356 H 0.0 **** 0.52
12124 M 1.4429152305057538 6.775318904519526 25.64941193117997 M 0.0 **** -1.04
12125 O 39.55533529949668 10.041413007247861 36.57644051287695 O 0.0 **** 0.0
12126 H 39.31260737083452 10.546652829518692 37.352356455726614 H 0.0 **** 0.52
12127 H 40.487609251149856 9.857564701780952 36.691734083378954 H 0.0 **** 0.52
12128 M 39.64360613578991 10.082555627345897 36.69052637586419 M 0.0 **** -1.04
12129 O 5.687190656253909 34.748494032390866 35.161939889549096 O 0.0 **** 0.0
12130 H 6.275819407259608 35.005555615690426 34.45224577664448 H 0.0 **** 0.52
12131 H 5.777333811392746 33.797071564203755 35.21577252243883 H 0.0 **** 0.52
12132 M 5.774081983393634 34.65960754194012 35.07798099729084 M 0.0 **** -1.04
12133 O 44.744194196671074 34.33113841607411 32.31788349435012 O 0.0 **** 0.0
12134 H 44.816672015044055 35.08808492247185 31.736500164927747 H 0.0 **** 0.52
12135 H 45.591820494577334 34.2863159493725 32.76031777799302 H 0.0 **** 0.52
12136 M 44.861979147320255 34.42229952976019 32.300095771334284 M 0.0 **** -1.04
12137 O 47.65097705899611 14.341418620714478 32.68868012606621 O 0.0 **** 0.0
12138 H 48.35450035652092 14.055801885424287 32.10583678555543 H 0.0 **** 0.52
12139 H 47.348957451308884 15.168392188129957 32.31300955320836 H 0.0 **** 0.52
12140 M 47.70237412614734 14.410718685843293 32.56597766583674 M 0.0 **** -1.04
12141 O 40.27213851074915 33.05183142812699 36.609043180469776 O 0.0 **** 0.0
12142 H 40.77636663151588 32.433022001143684 36.08078397586102 H 0.0 **** 0.52
12143 H 40.79509139611064 33.853532207424195 36.6039433087495 H 0.0 **** 0.52
12144 M 40.40363102926732 33.075243831332514 36.540766049101386 M 0.0 **** -1.04
12145 O 41.28019545349978 43.317297151879295 38.38693918673702 O 0.0 **** 0.0
12146 H 41.813121792468486 43.64545211156958 37.66269363290253 H 0.0 **** 0.52
12147 H 41.4861358053565 42.38363209247416 38.43261641298915 H 0.0 **** 0.52
12148 M 41.37477924650308 43.239784047033964 38.30007436262885 M 0.0 **** -1.04
12149 O 20.088952705758686 21.131863494248034 44.9069209041495 O 0.0 **** 0.0
12150 H 20.99762015715794 20.831061189242753 44.89851155155547 H 0.0 **** 0.52
12151 H 19.60039728864274 20.408719655641498 45.3001210094115 H 0.0 **** 0.52
12152 M 20.14273277870747 21.00078463720429 44.95617861049814 M 0.0 **** -1.04
12153 O 26.929031139797377 44.76422913255129 32.99230715500889 O 0.0 **** 0.0
12154 H 26.100051838925292 45.239810659959396 32.93897090648077 H 0.0 **** 0.52
12155 H 27.510392451919483 45.22688615520533 32.38882096402951 H 0.0 **** 0.52
12156 M 26.897332131178132 44.88433499046243 32.908226104557755 M 0.0 **** -1.04
12157 O 13.984815817420744 47.60615836937887 40.943639745587184 O 0.0 **** 0.0
12158 H 13.662211233746628 47.84604253450471 41.81232261917406 H 0.0 **** 0.52
12159 H 13.58994245891518 46.75199066886122 40.7684258689799 H 0.0 **** 0.52
12160 M 13.892970040812836 47.527522485663 41.03241239181061 M 0.0 **** -1.04
12161 O 25.000725239319586 27.470472179768887 21.1088261411654 O 0.0 **** 0.0
12162 H 25.202805687869876 27.01755333102859 21.927518009339483 H 0.0 **** 0.52
12163 H 24.04473773107576 27.513994286799868 21.088281972522473 H 0.0 **** 0.52
12164 M 24.904215937072834 27.418064227813588 21.210998620638566 M 0.0 **** -1.04
12165 O 8.705794444124813 20.465212180787866 17.28189357700738 O 0.0 **** 0.0
12166 H 7.898516025342282 20.855812364344807 17.616499372113275 H 0.0 **** 0.52
12167 H 8.886946325448967 19.739661495670813 17.87937953393279 H 0.0 **** 0.52
12168 M 8.62564274436751 20.422334311143356 17.401212893925234 M 0.0 **** -1.04
12169 O 22.006132530887783 42.61028948979932 4.822714463453767 O 0.0 **** 0.0
12170 H 22.143562109893566 42.5694218394374 3.876315282611322 H 0.0 **** 0.52
12171 H 21.568418919933293 41.78656431324575 5.037451431407642 H 0.0 **** 0.52
12172 M 21.96769270677902 42.499610766695945 4.72905271472092 M 0.0 **** -1.04
12173 O 2.957470848416048 4.881666996406473 27.569183804447864 O 0.0 **** 0.0
12174 H 3.652540741553196 5.1643483404209505 26.974879178511276 H 0.0 **** 0.52
12175 H 2.1464970219861326 5.1286605947142405 27.12472277735803 H 0.0 **** 0.52
12176 M 2.942634051256892 4.949471989624023 27.436207947248786 M 0.0 **** -1.04
12177 O 20.29446622021084 14.925391189258164 20.6990284862509 O 0.0 **** 0.0
12178 H 20.215647237670122 15.18924315233562 21.615760579628457 H 0.0 **** 0.52
12179 H 20.139826521629036 13.980801348454229 20.70701911385566 H 0.0 **** 0.52
12180 M 20.264580852745297 14.838248082543835 20.817404568639294 M 0.0 **** -1.04
12181 O 29.261069084688483 14.59361919187262 32.19496377914997 O 0.0 **** 0.0
12182 H 28.335382651038106 14.400501593160712 32.34341797467401 H 0.0 **** 0.52
12183 H 29.700316819174972 13.748105450853295 32.28660509918228 H 0.0 **** 0.52
12184 M 29.19879900689001 14.460660830905539 32.2256998817969 M 0.0 **** -1.04
12185 O 11.590362640794865 24.59160672501664 13.420761917490566 O 0.0 **** 0.0
12186 H 12.342206914603352 24.086546526367393 13.111127523954252 H 0.0 **** 0.52
12187 H 11.178328885061532 24.03037452948888 14.077630308856143 H 0.0 **** 0.52
12188 M 11.633862348743065 24.455107587794878 13.465212506059551 M 0.0 **** -1.04
12189 O 23.38699382752667 13.299018603745797 45.460200197506595 O 0.0 **** 0.0
12190 H 23.150408590135456 14.19295950626088 45.21296685587244 H 0.0 **** 0.52
12191 H 24.2139951568862 13.135521352860993 45.006806164601194 H 0.0 **** 0.52
12192 M 23.462574469144336 13.392524386434776 45.37051071778142 M 0.0 **** -1.04
12193 O 2.873080377794115 16.731486573372674 27.266478793491416 O 0.0 **** 0.0
12194 H 2.255313016005144 16.253824167338006 27.82004047412486 H 0.0 **** 0.52
12195 H 3.5452501036375086 17.044569843643572 27.871785258028478 H 0.0 **** 0.52
12196 M 2.8800445521847036 16.710418391483014 27.414828503908822 M 0.0 **** -1.04
12197 O 12.997604712547599 49.032496746562664 33.59487776654232 O 0.0 **** 0.0
12198 H 12.154592143885289 49.25067139570223 33.19743924326943 H 0.0 **** 0.52
12199 H 12.865234921868051 48.165144975272575 33.9775106863905 H 0.0 **** 0.52
12200 M 12.8727432548597 48.94939456625899 33.592982266131834 M 0.0 **** -1.04
12201 O 15.579815904609912 36.317378780391735 41.911104605579844 O 0.0 **** 0.0
12202 H 15.589633543934196 36.26864126281257 40.955198209087406 H 0.0 **** 0.52
12203 H 16.119086356459494 37.080657066911904 42.11804100023678 H 0.0 **** 0.52
12204 M 15.65010569715461 36.40884911790742 41.81522679822168 M 0.0 **** -1.04
12205 O 38.65098072002498 33.90061989259199 38.840432327899286 O 0.0 **** 0.0
12206 H 38.52905773492175 34.60284900535058 38.201497222015945 H 0.0 **** 0.52
12207 H 38.83539647444681 33.12436222660333 38.31161912770546 H 0.0 **** 0.52
12208 M 38.65898124816025 33.8911432817954 38.69094547583739 M 0.0 **** -1.04
12209 O 20.84353659175247 5.803985357058304 7.622072160141618 O 0.0 **** 0.0
12210 H 20.050739727366057 5.59748399965464 8.117106491364193 H 0.0 **** 0.52
12211 H 21.560892674769324 5.603801141329346 8.223366038633786 H 0.0 **** 0.52
12212 M 20.833879335574 5.751924233011367 7.76241551136304 M 0.0 **** -1.04
12213 O 3.9849714032227865 11.025476689515266 38.36615698709029 O 0.0 **** 0.0
12214 H 3.112510061739222 10.641533754685028 38.27881805741468 H 0.0 **** 0.52
12215 H 3.990443658598643 11.75288307363455 37.74400069150787 H 0.0 **** 0.52
12216 M 3.873986003761182 11.069444488639576 38.27533232944977 M 0.0 **** -1.04
12217 O 29.635803381711195 42.399343875930846 11.136599483128379 O 0.0 **** 0.0
12218 H 29.404489380054105 43.29246837162074 11.391650409786878 H 0.0 **** 0.52
12219 H 29.008179509214568 42.17585675741666 10.44930721107822 H 0.0 **** 0.52
12220 M 29.52584862613869 42.48506521559789 11.081267114367533 M 0.0 **** -1.04
12221 O 14.853320108774113 38.31035089061656 20.990209084188415 O 0.0 **** 0.0
12222 H 14.513854258285022 37.44683544848948 21.225439867728575 H 0.0 **** 0.52
12223 H 15.614082318966922 38.12713392327654 20.438936386321558 H 0.0 **** 0.52
12224 M 14.907251601419725 38.176355826790555 20.949751173759672 M 0.0 **** -1.04
12225 O 31.592146795166947 12.898606185254868 35.062693913038416 O 0.0 **** 0.0
12226 H 32.48928820234655 12.564927342385046 35.06744895893299 H 0.0 **** 0.52
12227 H 31.05175201108608 12.137121125496332 35.27327404228221 H 0.0 **** 0.52
12228 M 31.63781422348951 12.75841163191339 35.09025999476536 M 0.0 **** -1.04
12229 O 40.63605588869229 33.70653655455024 6.561379858789633 O 0.0 **** 0.0
12230 H 40.81491289030787 32.81383136894956 6.856872141696413 H 0.0 **** 0.52
12231 H 39.680910916285534 33.7667257607522 6.543943533987171 H 0.0 **** 0.52
12232 M 40.53668181082217 33.59996417494526 6.596974708666919 M 0.0 **** -1.04
12233 O 39.219682114857605 40.0217967060533 5.013514166521027 O 0.0 **** 0.0
12234 H 39.07905573478986 39.17682432723128 5.440685130536828 H 0.0 **** 0.52
12235 H 39.295109884534284 39.810662574176106 4.0829433799940915 H 0.0 **** 0.52
12236 M 39.21133585056514 39.88660143648577 4.949072821501476 M 0.0 **** -1.04
12237 O 5.963992156014285 4.4808018733099795 18.074465862170925 O 0.0 **** 0.0
12238 H 6.461006229436826 4.893203703280637 17.3679741130961 H 0.0 **** 0.52
12239 H 6.279236058209669 3.5772138918010654 18.093937304344177 H 0.0 **** 0.52
12240 M 6.067971135469108 4.417923297610798 17.98651869993373 M 0.0 **** -1.04
12241 O 47.17630855626525 29.809097050401114 45.19691678387533 O 0.0 **** 0.0
12242 H 47.081144574147096 29.143938233833374 44.515201583924735 H 0.0 **** 0.52
12243 H 46.309500187548124 30.209530427721216 45.26418100153996 H 0.0 **** 0.52
12244 M 47.05316328074035 29.77520874315642 45.11825986713584 M 0.0 **** -1.04
12245 O 24.6029439092556 0.928866414652805 38.3270938412469 O 0.0 **** 0.0
12246 H 24.03667123707501 1.7002827136711924 38.30518174598751 H 0.0 **** 0.52
12247 H 25.180284770341046 1.0334045900784579 37.570800846687106 H 0.0 **** 0.52
12248 M 24.604360954454222 1.040999983089869 38.22747368580391 M 0.0 **** -1.04
12249 O 10.282342123766913 28.144341030845094 47.82824700041349 O 0.0 **** 0.0
12250 H 10.79656820153587 28.93918625991684 47.68675231606444 H 0.0 **** 0.52
12251 H 9.480513216954899 28.44962312130157 48.25263070865048 H 0.0 **** 0.52
12252 M 10.245525860286198 28.28517079281487 47.86446064739739 M 0.0 **** -1.04
12253 O 29.09111725459507 27.22348188460835 20.573564055404997 O 0.0 **** 0.0
12254 H 28.344965250473688 27.814746186496407 20.474102142999225 H 0.0 **** 0.52
12255 H 28.857304910133127 26.66456173767072 21.314623140712207 H 0.0 **** 0.52
12256 M 28.965669480945234 27.227622258891845 20.655696691537607 M 0.0 **** -1.04
12257 O 8.669414982906531 34.72123290115609 25.83474269167382 O 0.0 **** 0.0
12258 H 8.208521532042909 35.5580880929021 25.775766101842855 H 0.0 **** 0.52
12259 H 9.105303845022881 34.62710432104089 24.987766193520102 H 0.0 **** 0.52
12260 M 8.666213900845484 34.816310876329865 25.718769571117907 M 0.0 **** -1.04
12261 O 36.42703471831629 14.541001341024655 31.329827809369274 O 0.0 **** 0.0
12262 H 35.939489518486994 14.583368180840584 32.1524659215164 H 0.0 **** 0.52
12263 H 37.19296949288375 15.096183036131187 31.47592963712137 H 0.0 **** 0.52
12264 M 36.46267233602261 14.61749525682724 31.45383857279495 M 0.0 **** -1.04
12265 O 14.26530526802948 1.0749861418465303 0.898099493894789 O 0.0 **** 0.0
12266 H 14.320644085684831 0.9774921361355927 -0.05251098117143016 H 0.0 **** 0.52
12267 H 14.53995144495011 1.976943842416853 1.0632368704497426 H 0.0 **** 0.52
12268 M 14.307547822758092 1.1779681128233315 0.7975496596395781 M 0.0 **** -1.04
12269 O 35.323446765793214 17.907968985222745 30.01158631600994 O 0.0 **** 0.0
12270 H 35.95532671246618 17.409340835374017 30.529587258677157 H 0.0 **** 0.52
12271 H 35.78335497388212 18.71635410099938 29.78525144850744 H 0.0 **** 0.52
12272 M 35.46320948004597 17.947621407832226 30.048922883004032 M 0.0 **** -1.04
12273 O 20.512082412059897 24.24118912348277 41.12753198877647 O 0.0 **** 0.0
12274 H 19.99397621273599 24.200733093283546 40.323692779742046 H 0.0 **** 0.52
12275 H 20.912003590357703 25.110697107933987 41.11178079307929 H 0.0 **** 0.52
12276 M 20.496953047322833 24.347318326465768 41.02261414602401 M 0.0 **** -1.04
12277 O 41.87797090333726 26.984570164088463 19.071634991399392 O 0.0 **** 0.0
12278 H 42.05517994286127 27.908722929167784 19.2470417258899 H 0.0 **** 0.52
12279 H 42.67383567044567 26.663917706525048 18.647359633964612 H 0.0 **** 0.52
12280 M 42.00253673083446 27.061825342332522 19.039776310519628 M 0.0 **** -1.04
12281 O 21.05167852173516 19.437496866248438 10.413090446959949 O 0.0 **** 0.0
12282 H 20.523321866159492 20.084092128263137 10.881046984423847 H 0.0 **** 0.52
12283 H 20.50620809618084 19.172471714968793 9.672515357825866 H 0.0 **** 0.52
12284 M 20.91421516336706 19.4863428335414 10.378191846251838 M 0.0 **** -1.04
12285 O 42.912916291839814 1.8293376945283448 33.59291013204797 O 0.0 **** 0.0
12286 H 42.994935855963796 0.9165797940011894 33.31655223924238 H 0.0 **** 0.52
12287 H 41.97022575433581 1.9953298230912577 33.59612365042058 H 0.0 **** 0.52
12288 M 42.802739495298674 1.7337421268627402 33.55794432359719 M 0.0 **** -1.04
12289 O 7.9308067482401485 46.091150017675794 16.75809604015269 O 0.0 **** 0.0
12290 H 8.559133043914922 46.128150190743995 17.479252043845946 H 0.0 **** 0.52
12291 H 7.1193328025103675 46.43804261971241 17.128774488401714 H 0.0 **** 0.52
12292 M 7.907362056943933 46.14029276835754 16.89786454561606 M 0.0 **** -1.04
12293 O 31.980031702551432 36.155886720787976 18.776857931762812 O 0.0 **** 0.0
12294 H 31.035275584424 36.01273868211359 18.833197538694158 H 0.0 **** 0.52
12295 H 32.32896520823957 35.77487347457305 19.582651324700276 H 0.0 **** 0.52
12296 M 31.90375818063566 36.088786927847806 18.887221738891526 M 0.0 **** -1.04
12297 O 22.603427613082165 2.685080575035876 13.249095688151126 O 0.0 **** 0.0
12298 H 22.24569164892556 1.942990156098837 12.76169994711874 H 0.0 **** 0.52
12299 H 22.445392142847925 2.4674692773981164 14.16773534342624 H 0.0 **** 0.52
12300 M 22.537402891019866 2.562226655576552 13.304300919226375 M 0.0 **** -1.04
12301 O 44.00927821701625 3.9346983252869507 17.286553181675625 O 0.0 **** 0.0
12302 H 43.40589955536225 4.61328261692584 17.58934964756661 H 0.0 **** 0.52
12303 H 43.51699302609945 3.45603122360382 16.61964857617138 H 0.0 **** 0.52
12304 M 43.86902024285358 3.960290010631276 17.239942002340285 M 0.0 **** -1.04
12305 O 33.1601215188913 15.827466467987197 43.747062251753164 O 0.0 **** 0.0
12306 H 32.9912078723765 16.769581615018144 43.757793013924676 H 0.0 **** 0.52
12307 H 33.67319574779156 15.684683924525839 42.951702035703875 H 0.0 **** 0.52
12308 M 33.204178513354535 15.929791473820606 43.64662033689161 M 0.0 **** -1.04
12309 O 44.35411244695308 38.69669306464556 14.23367552760348 O 0.0 **** 0.0
12310 H 44.06493555285818 37.90814441590228 13.774548915047866 H 0.0 **** 0.52
12311 H 43.74438362206419 38.785081650832325 14.9662372195466 H 0.0 **** 0.52
12312 M 44.23904102438939 38.60706358972278 14.268679110738063 M 0.0 **** -1.04
12313 O 15.134866053746329 11.541512668422502 39.61515881685367 O 0.0 **** 0.0
12314 H 14.435643015601322 11.117834396072386 39.11735041046218 H 0.0 **** 0.52
12315 H 15.921914728138304 11.404234495970025 39.087960979481124 H 0.0 **** 0.52
12316 M 15.14610851515063 11.469703547241831 39.48394516090729 M 0.0 **** -1.04
12317 O 28.96487732261693 33.14893576228238 0.08287129217473677 O 0.0 **** 0.0
12318 H 28.982415131950233 33.36038932925647 1.0162555600613246 H 0.0 **** 0.52
12319 H 29.755769279375833 33.55628173522881 -0.2703832567908009 H 0.0 **** 0.52
12320 M 29.0683668235312 33.22814997194034 0.15713530517407293 M 0.0 **** -1.04
12321 O 21.364859730491776 41.58220085943932 13.756647536495562 O 0.0 **** 0.0
12322 H 21.446914748754573 42.128516675551445 14.538334469432252 H 0.0 **** 0.52
12323 H 20.897904515042363 40.802395786401775 14.056791260609293 H 0.0 **** 0.52
12324 M 21.31558735201025 41.552310865224115 13.895135557329755 M 0.0 **** -1.04
12325 O 36.63873970864056 21.608752229865562 12.93128255352577 O 0.0 **** 0.0
12326 H 35.82956830203568 21.17982930950263 12.65290205556239 H 0.0 **** 0.52
12327 H 36.35178243786868 22.293734444637828 13.535172488550153 H 0.0 **** 0.52
12328 M 36.498421128511936 21.641531454954283 12.972951850355322 M 0.0 **** -1.04
12329 O 35.27958626893444 40.87241010076205 11.47164091244099 O 0.0 **** 0.0
12330 H 35.78926747334367 40.30046463356864 10.897766549836916 H 0.0 **** 0.52
12331 H 34.53370458781788 41.14538018140749 10.937434828540248 H 0.0 **** 0.52
12332 M 35.24935001129319 40.8341379717819 11.329792794366796 M 0.0 **** -1.04
12333 O 2.4148637908883086 16.532124127425163 48.66451780530153 O 0.0 **** 0.0
12334 H 2.341563442728653 17.369368678323614 49.12264290654161 H 0.0 **** 0.52
12335 H 1.6272145139490117 16.48530423514021 48.122628732980324 H 0.0 **** 0.52
12336 M 2.3046511487940777 16.63330852069693 48.653795021575895 M 0.0 **** -1.04
12337 O 45.3529291103086 17.487973392575846 44.0871353164719 O 0.0 **** 0.0
12338 H 44.510733533431825 17.938665892307263 44.02538778401981 H 0.0 **** 0.52
12339 H 45.169963710019346 16.595950630297047 43.7920985427379 H 0.0 **** 0.52
12340 M 45.221695228870615 17.431477846943068 44.04146194012009 M 0.0 **** -1.04
12341 O 7.408442821780369 42.44096587604982 9.534262129104711 O 0.0 **** 0.0
12342 H 7.524938889403273 41.72467305411408 10.158427266792202 H 0.0 **** 0.52
12343 H 6.780489997637154 42.103112475503295 8.895702462120937 H 0.0 **** 0.52
12344 M 7.342970059443687 42.306021865892774 9.53241960590745 M 0.0 **** -1.04
12345 O 26.230740677140034 16.775489728981427 12.174838920370656 O 0.0 **** 0.0
12346 H 26.224045184223282 15.8293425844355 12.029958581946858 H 0.0 **** 0.52
12347 H 25.482388175089067 16.935536324608574 12.74980092620218 H 0.0 **** 0.52
12348 M 26.13408541166698 16.67485848187941 12.229894784608865 M 0.0 **** -1.04
12349 O 42.252131984106285 45.336138495609724 7.14929903259571 O 0.0 **** 0.0
12350 H 42.043299413859785 44.428494019255986 7.370206525507633 H 0.0 **** 0.52
12351 H 42.57012656383927 45.29654147220476 6.247334301599117 H 0.0 **** 0.52
12352 M 42.26610621576802 45.21487969834509 7.062114835837385 M 0.0 **** -1.04
12353 O 31.488817873596172 5.691349781185091 45.81886767549684 O 0.0 **** 0.0
12354 H 32.090979649391464 6.136806579433301 46.414851945619816 H 0.0 **** 0.52
12355 H 30.626186963034332 6.039088021627066 46.04508699647553 H 0.0 **** 0.52
12356 M 31.455473874428655 5.792888098257763 45.92412008191377 M 0.0 **** -1.04
12357 O 34.026914742017695 10.439935044396684 46.7105034763135 O 0.0 **** 0.0
12358 H 34.166846928963906 10.918517480363095 47.527574940809686 H 0.0 **** 0.52
12359 H 33.27313880073041 9.877309231673964 46.88799357096833 H 0.0 **** 0.52
12360 M 33.94833503895482 10.429176562724003 46.83782011088907 M 0.0 **** -1.04
12361 O 15.997193676181451 25.91031740633195 17.326411648053266 O 0.0 **** 0.0
12362 H 16.091021457016875 25.389359687435768 16.528898411866734 H 0.0 **** 0.52
12363 H 15.242550090691333 26.474340144416924 17.157234411158086 H 0.0 **** 0.52
12364 M 15.912601049608089 25.915830665042886 17.202662858233623 M 0.0 **** -1.04
12365 O 0.6886998682389063 12.960509848397592 8.404346003530362 O 0.0 **** 0.0
12366 H -0.2669863854146044 12.915542855022224 8.374831890800191 H 0.0 **** 0.52
12367 H 0.9109248094758158 13.709311666352356 7.851045942137211 H 0.0 **** 0.52
12368 M 0.5948077959829519 13.050609408082813 8.329738710146898 M 0.0 **** -1.04
12369 O 11.469422138867351 45.75509817148977 43.714175611391205 O 0.0 **** 0.0
12370 H 11.379065646609263 44.871957143841215 44.072124367625065 H 0.0 **** 0.52
12371 H 10.601650671844467 45.963801901077545 43.36828114750979 H 0.0 **** 0.52
12372 M 11.34676979414786 45.66876215241465 43.715718930562396 M 0.0 **** -1.04
12373 O 27.487117519331385 14.694763099841202 4.865966417259788 O 0.0 **** 0.0
12374 H 28.215879439875167 14.795318109487726 5.478358717053495 H 0.0 **** 0.52
12375 H 27.288712067385394 15.586605267990068 4.580516248627966 H 0.0 **** 0.52
12376 M 27.555009549719053 14.821802261554005 4.907818464702594 M 0.0 **** -1.04
12377 O 49.65195323170477 43.34651700348501 41.72730387804792 O 0.0 **** 0.0
12378 H 49.19023523511901 43.78220021240504 42.443701080596554 H 0.0 **** 0.52
12379 H 49.29772731591943 43.748297369107874 40.93400268923276 H 0.0 **** 0.52
12380 M 49.54750147274584 43.45372249900526 41.71745895810761 M 0.0 **** -1.04
12381 O 14.599205435346468 48.619438815054124 36.250294110293495 O 0.0 **** 0.0
12382 H 13.933456298667968 48.41387597782003 36.90660987387158 H 0.0 **** 0.52
12383 H 14.583237552643235 49.57414253078705 36.18310639548094 H 0.0 **** 0.52
12384 M 14.511937060610741 48.71533794994086 36.32570991436639 M 0.0 **** -1.04
12385 O 49.414687871000275 41.12352480977495 23.59743764350356 O 0.0 **** 0.0
12386 H 48.90014447143856 40.748054383464314 24.3119279508397 H 0.0 **** 0.52
12387 H 50.29281666839763 41.22869067106227 23.96357911474643 H 0.0 **** 0.52
12388 M 49.46123131409885 41.0889225696196 23.73577179387054 M 0.0 **** -1.04
12389 O 39.5975763350701 25.342003400720834 0.21964774054407743 O 0.0 **** 0.0
12390 H 40.140621396117126 25.92672535711567 -0.3089633467747319 H 0.0 **** 0.52
12391 H 40.05714930289827 24.502629608274052 0.1978679430873471 H 0.0 **** 0.52
12392 M 39.725923907267884 25.30940422330503 0.1491910785187409 M 0.0 **** -1.04
12393 O 26.945757153451154 3.6976493861761393 35.19122797891106 O 0.0 **** 0.0
12394 H 26.538279542533733 4.244867444606968 35.862601523163676 H 0.0 **** 0.52
12395 H 27.874656992828456 3.9259244663966024 35.22678542966703 H 0.0 **** 0.52
12396 M 27.012505503157787 3.7969218999646475 35.28172430037526 M 0.0 **** -1.04
12397 O 43.305940324633674 44.783267053586435 36.82413041325314 O 0.0 **** 0.0
12398 H 42.92730998832028 45.09771668782341 36.0031627385478 H 0.0 **** 0.52
12399 H 43.788960681640354 43.994099678510054 36.57890529527206 H 0.0 **** 0.52
12400 M 43.31930365588232 44.72249696804792 36.68764479151747 M 0.0 **** -1.04
12401 O 37.86017020853661 4.641389592117595 42.330748594016214 O 0.0 **** 0.0
12402 H 38.46931959055893 4.391512932226077 43.02553462784048 H 0.0 **** 0.52
12403 H 38.32930528996594 5.307554116540932 41.82838883777962 H 0.0 **** 0.52
12404 M 37.99820370496415 4.694680163660488 42.355381301837674 M 0.0 **** -1.04
12405 O 35.970042367387435 27.743262562124727 30.817116629066593 O 0.0 **** 0.0
12406 H 35.190230718023614 28.064127920832973 30.364161295009094 H 0.0 **** 0.52
12407 H 35.674146888878646 27.56969401935811 31.710732583737595 H 0.0 **** 0.52
12408 M 35.83233839893995 27.762118712978015 30.873526608058178 M 0.0 **** -1.04
12409 O 31.252210241589754 32.81543376422982 27.874362172157003 O 0.0 **** 0.0
12410 H 30.524027095153375 33.19376439007023 27.38156946668343 H 0.0 **** 0.52
12411 H 32.00209563837881 33.36952110067503 27.657825971132056 H 0.0 **** 0.52
12412 M 31.254988841369727 32.934794711138366 27.783559039769674 M 0.0 **** -1.04
12413 O 31.727424885489583 24.02252973000073 7.800226274262794 O 0.0 **** 0.0
12414 H 32.268563419878035 24.80153616321208 7.671592124916453 H 0.0 **** 0.52
12415 H 32.35608326341438 23.310776738268988 7.920331310392445 H 0.0 **** 0.52
12416 M 31.87717360323849 24.031138940271674 7.7991346167786375 M 0.0 **** -1.04
12417 O 47.56160137510441 17.784915922335564 27.558298602864326 O 0.0 **** 0.0
12418 H 46.970230649956726 17.049731357191153 27.719579378178736 H 0.0 **** 0.52
12419 H 46.995479287138124 18.55655987206433 27.57562558142324 H 0.0 **** 0.52
12420 M 47.41342724882203 17.78958363570307 27.58116180564477 M 0.0 **** -1.04
12421 O 3.649563341531177 42.67994212880483 22.746058053649833 O 0.0 **** 0.0
12422 H 4.340682839235445 43.29282791955571 22.996963712450402 H 0.0 **** 0.52
12423 H 3.4776461710297126 42.876029760752 21.82506792528656 H 0.0 **** 0.52
12424 M 3.7160279208250944 42.78350103056975 22.6602785482331 M 0.0 **** -1.04
12425 O 44.32384745365875 25.29476796080915 43.75761152161919 O 0.0 **** 0.0
12426 H 44.29202167309248 26.248504170329422 43.83247192209328 H 0.0 **** 0.52
12427 H 44.77439795376655 25.00663079253286 44.551468927976416 H 0.0 **** 0.52
12428 M 44.377449875855206 25.37997274602476 43.86881763592517 M 0.0 **** -1.04
12429 O 43.21907125346415 44.43392184238913 30.609781507271553 O 0.0 **** 0.0
12430 H 42.97432956223196 44.18838609944647 31.50199354045905 H 0.0 **** 0.52
12431 H 42.79496165790326 43.77870434049175 30.05565928099137 H 0.0 **** 0.52
12432 M 43.133449960219 44.31861420044765 30.653060504983223 M 0.0 **** -1.04
12433 O 46.742281893676456 14.879135390137867 39.81052545646988 O 0.0 **** 0.0
12434 H 46.949254824887035 14.220056128828933 39.14795000144205 H 0.0 **** 0.52
12435 H 46.3319922202707 14.385196934906231 40.5203957082714 H 0.0 **** 0.52
12436 M 46.71625512249556 14.731534544192847 39.81657923803431 M 0.0 **** -1.04
12437 O 47.07356971324497 38.5477236991369 47.41676578366307 O 0.0 **** 0.0
12438 H 46.58736963398724 39.27061209913265 47.020191812761766 H 0.0 **** 0.52
12439 H 46.634823492472556 38.393861704227824 48.25345927404146 H 0.0 **** 0.52
12440 M 46.955165133078054 38.62056629008386 47.47310615035188 M 0.0 **** -1.04
12441 O 9.954215278121133 28.43507239245387 44.41310676506954 O 0.0 **** 0.0
12442 H 10.161165884795096 28.576292149896958 45.33693461430482 H 0.0 **** 0.52
12443 H 10.500896173731533 27.692789739603615 44.1554522258782 H 0.0 **** 0.52
12444 M 10.050690247876318 28.358129234973763 44.49838540232835 M 0.0 **** -1.04
12445 O 11.742841899420657 4.893778360264496 21.534885684246888 O 0.0 **** 0.0
12446 H 12.608952124138241 5.083262049058451 21.89568655217863 H 0.0 **** 0.52
12447 H 11.414489591265848 4.169044811793995 22.067026721179175 H 0.0 **** 0.52
12448 M 11.81168132573472 4.825260131681598 21.649193000625274 M 0.0 **** -1.04
12449 O 8.308761193898555 16.371189393318673 14.96089987540045 O 0.0 **** 0.0
12450 H 8.133518458354857 17.274918613286786 15.223182698529307 H 0.0 **** 0.52
12451 H 7.450243900200107 15.947986906459363 14.969645573956567 H 0.0 **** 0.52
12452 M 8.176427063095268 16.432703179136823 14.995594626802761 M 0.0 **** -1.04
12453 O 35.74736002423652 2.90707725493639 44.45553181822204 O 0.0 **** 0.0
12454 H 36.13152946800641 3.760911796059983 44.65455159864428 H 0.0 **** 0.52
12455 H 35.88018578506126 2.3926792581793404 45.25176165992555 H 0.0 **** 0.52
12456 M 35.81354152506576 2.950529277119868 44.58293712903038 M 0.0 **** -1.04
12457 O 23.357513958107532 48.64642573889464 3.8062079194178664 O 0.0 **** 0.0
12458 H 23.494921979387456 47.765524159830264 3.457841332728574 H 0.0 **** 0.52
12459 H 24.213570444239764 49.06876716914955 3.7353218933344206 H 0.0 **** 0.52
12460 M 23.484690044192945 48.58772451465868 3.7525379903868723 M 0.0 **** -1.04
12461 O 4.099580432002264 19.611392938047395 39.14005755064455 O 0.0 **** 0.0
12462 H 3.5300458589049795 19.9736198791823 39.81876970312221 H 0.0 **** 0.52
12463 H 4.9587465309133245 19.546755624980104 39.55705238317166 H 0.0 **** 0.52
12464 M 4.136656764456655 19.64948715012618 39.280321423939945 M 0.0 **** -1.04
12465 O 16.75522091663302 26.06256531249372 4.524074367628273 O 0.0 **** 0.0
12466 H 16.302872067403335 25.46718117119911 3.9264726773697163 H 0.0 **** 0.52
12467 H 16.696166782804546 26.91874615848428 4.1001697453756805 H 0.0 **** 0.52
12468 M 16.689754749142946 26.095950411626912 4.393308735996655 M 0.0 **** -1.04
12469 O 5.356556708215223 12.889625286909654 10.345595366231251 O 0.0 **** 0.0
12470 H 5.347421994386117 12.542731398722463 9.453513604871631 H 0.0 **** 0.52
12471 H 6.149129249237831 12.522987815031165 10.737557667787613 H 0.0 **** 0.52
12472 M 5.456846104390962 12.798284299305347 10.28157376525806 M 0.0 **** -1.04
12473 O 48.00861056768472 0.15769353551894483 34.300719093359675 O 0.0 **** 0.0
12474 H 47.894084186205355 0.7180427225869437 35.06826148123119 H 0.0 **** 0.52
12475 H 48.722439294938695 0.5653561498466857 33.810323767806445 H 0.0 **** 0.52
12476 M 48.085329154686114 0.2816108814529912 34.336197509293456 M 0.0 **** -1.04
12477 O 5.926284165009001 12.719701394599127 14.726554346031158 O 0.0 **** 0.0
12478 H 5.046269108146539 12.484467897195243 15.020606442798258 H 0.0 **** 0.52
12479 H 6.199233126709281 11.986221011367155 14.175433326574229 H 0.0 **** 0.52
12480 M 5.848572477079003 12.595693626004707 14.693646237040829 M 0.0 **** -1.04
12481 O 40.29014192116519 12.724626141821005 32.63897582482363 O 0.0 **** 0.0
12482 H 40.92635899656104 12.065003907543826 32.3626503208786 H 0.0 **** 0.52
12483 H 39.67436085970605 12.784904551013426 31.908627914968292 H 0.0 **** 0.52
12484 M 40.29275805849465 12.647903223806331 32.51010879902658 M 0.0 **** -1.04
12485 O 39.18491514425818 43.28784554061474 18.232213184811204 O 0.0 **** 0.0
12486 H 39.10099480704115 44.24084060523398 18.200786552003134 H 0.0 **** 0.52
12487 H 40.12760488702877 43.131667542481395 18.28855021440175 H 0.0 **** 0.52
12488 M 39.29484817832801 43.38984843102248 18.235402426517926 M 0.0 **** -1.04
12489 O 46.95963760315592 19.579292944907564 48.884542342552855 O 0.0 **** 0.0
12490 H 46.13783208864572 19.089695719344476 48.850492994037026 H 0.0 **** 0.52
12491 H 46.919733904449735 20.057886305791584 49.71254258585299 H 0.0 **** 0.52
12492 M 46.84932835275687 19.57788389442902 48.98617770708284 M 0.0 **** -1.04
12493 O 1.1592984408954297 29.688995012963467 2.225312460877049 O 0.0 **** 0.0
12494 H 0.32812871268692256 29.500027214107785 1.78979416522035 H 0.0 **** 0.52
12495 H 1.1166761246221664 29.199232365805802 3.046618652039591 H 0.0 **** 0.52
12496 M 1.0474420922525232 29.602108653095566 2.2746986324553973 M 0.0 **** -1.04
12497 O 44.29440495724921 11.733760453962631 37.285480200418384 O 0.0 **** 0.0
12498 H 43.777456316241825 12.50742321673458 37.51006634828629 H 0.0 **** 0.52
12499 H 44.38545302603292 11.25801393062728 38.11107292775707 H 0.0 **** 0.52
12500 M 44.23988358920512 11.77189777354937 37.41991649521764 M 0.0 **** -1.04
12501 O 17.768005034016877 0.3173743392371545 43.08900963950149 O 0.0 **** 0.0
12502 H 18.460242937254893 0.22785908347137035 42.434011573598895 H 0.0 **** 0.52
12503 H 17.174539822793847 -0.4125524879288278 42.91227285345303 H 0.0 **** 0.52
12504 M 17.780648199884844 0.21247557340458909 42.98253720370402 M 0.0 **** -1.04
12505 O 47.02225531585768 37.76422595591654 30.295188767912954 O 0.0 **** 0.0
12506 H 46.75360231474034 38.65215795298157 30.059327551312872 H 0.0 **** 0.52
12507 H 47.949851982932024 37.724326826371446 30.0623752848081 H 0.0 **** 0.52
12508 M 47.10660888730592 37.87278504569599 30.235192877460435 M 0.0 **** -1.04
12509 O 19.559555880293757 39.59099877256057 38.40621582646449 O 0.0 **** 0.0
12510 H 19.62201838703911 40.11585233176049 37.60818349287904 H 0.0 **** 0.52
12511 H 20.463924651894626 39.50364885862194 38.70740868281674 H 0.0 **** 0.52
12512 M 19.68332250543155 39.647004420728635 38.34261424915473 M 0.0 **** -1.04
12513 O 33.16633953446061 9.617999047021403 32.96223178596832 O 0.0 **** 0.0
12514 H 33.22698745646416 8.718262884233418 32.64125595753741 H 0.0 **** 0.52
12515 H 32.39274525868227 9.620069361603276 33.52594776573227 H 0.0 **** 0.52
12516 M 33.075073701053576 9.50308635749217 32.99330544239413 M 0.0 **** -1.04
12517 O 14.889340411329739 32.02631049124818 11.70202753903597 O 0.0 **** 0.0
12518 H 15.720368452841704 32.33888602555501 11.344370837392603 H 0.0 **** 0.52
12519 H 14.429955179177101 31.65237887607205 10.95011685912601 H 0.0 **** 0.52
12520 M 14.936915537009364 32.018456362287424 11.559988813697222 M 0.0 **** -1.04
12521 O 15.812937453133749 37.1527014144471 49.20567048722015 O 0.0 **** 0.0
12522 H 16.2475002268921 37.469594171049344 48.413861032465654 H 0.0 **** 0.52
12523 H 16.029643913726304 36.22105961340302 49.24186696917506 H 0.0 **** 0.52
12524 M 15.896308085118363 37.07400570963074 49.108942190264465 M 0.0 **** -1.04
12525 O 36.566694148890484 0.627281231966478 43.008028071267844 O 0.0 **** 0.0
12526 H 36.389920588706765 1.4790851090013462 43.407288683706106 H 0.0 **** 0.52
12527 H 37.460651353829384 0.6998460883316255 42.67365665147727 H 0.0 **** 0.52
12528 M 36.658502274346056 0.7456122187160332 43.01633489961666 M 0.0 **** -1.04
12529 O 33.27996657748556 25.776806989212915 5.1011721722256596 O 0.0 **** 0.0
12530 H 32.67883120589448 26.456749708309985 5.405381447885475 H 0.0 **** 0.52
12531 H 34.12407800851274 26.013223267143886 5.4856364271207525 H 0.0 **** 0.52
12532 M 33.31107044837699 25.89411305475896 5.18933108471137 M 0.0 **** -1.04
12533 O 16.50044853114551 13.306884791923977 25.765154649526632 O 0.0 **** 0.0
12534 H 16.26252184437015 14.105185666768492 25.29362974594203 H 0.0 **** 0.52
12535 H 17.368271498300842 13.08030202868251 25.430830444415108 H 0.0 **** 0.52
12536 M 16.581083402925064 13.380072213922844 25.66199532487175 M 0.0 **** -1.04
12537 O 41.85282193495476 25.18374626205285 25.021969293455896 O 0.0 **** 0.0
12538 H 41.49401481257933 24.65353052703221 24.310381037864083 H 0.0 **** 0.52
12539 H 42.75032266659765 25.37504314334546 24.749704374993723 H 0.0 **** 0.52
12540 M 41.921782395766414 25.14036007735548 24.896023467645545 M 0.0 **** -1.04
12541 O 44.49178222335599 24.771265350825455 4.453121001272763 O 0.0 **** 0.0
12542 H 45.214625069703246 24.78311570481096 5.080485171083346 H 0.0 **** 0.52
12543 H 43.906232649565965 24.085678559898138 4.774571373901907 H 0.0 **** 0.52
12544 M 44.509357944405465 24.68501859008047 4.574580527834549 M 0.0 **** -1.04
12545 O 25.45211575769697 1.8076057785384236 11.092268063936338 O 0.0 **** 0.0
12546 H 24.839144315917856 1.87274217747877 10.359976175120387 H 0.0 **** 0.52
12547 H 25.338183860888932 2.62674840113462 11.57419513693209 H 0.0 **** 0.52
12548 M 25.359062856149578 1.9208051655862803 11.060218930912086 M 0.0 **** -1.04
12549 O 25.780817895948466 17.305625006996646 41.4185685022217 O 0.0 **** 0.0
12550 H 26.1378527623316 18.183269413346835 41.282574674254846 H 0.0 **** 0.52
12551 H 25.9916082046338 17.099230961066205 42.32917154091028 H 0.0 **** 0.52
12552 M 25.853506288278325 17.39155307817278 41.51772872524714 M 0.0 **** -1.04
12553 O 42.36466744609932 23.53594047343705 27.326755070333107 O 0.0 **** 0.0
12554 H 42.283351339740264 22.706312748564983 26.856293558759518 H 0.0 **** 0.52
12555 H 42.155921393634536 24.203727276784377 26.673520928878098 H 0.0 **** 0.52
12556 M 42.32753628515174 23.515223369936308 27.18290864625791 M 0.0 **** -1.04
12557 O 49.111814312993666 38.70368156754329 13.426626852114147 O 0.0 **** 0.0
12558 H 48.25232973572344 39.096344692583635 13.579368168796115 H 0.0 **** 0.52
12559 H 49.40550544401372 39.08359925454542 12.59859584306637 H 0.0 **** 0.52
12560 M 49.03938577290928 38.80258176592088 13.340181300140046 M 0.0 **** -1.04
12561 O 49.2220445720744 4.893394111725663 25.53234288866302 O 0.0 **** 0.0
12562 H 48.75371207581636 5.249179431672157 26.28753229452716 H 0.0 **** 0.52
12563 H 50.017348606581606 5.422623143344313 25.47203716581924 H 0.0 **** 0.52
12564 M 49.263901449584765 5.006687060799538 25.62129686923854 M 0.0 **** -1.04
12565 O 24.170962324738746 48.62907780863345 10.29027926998729 O 0.0 **** 0.0
12566 H 23.228158962114854 48.71741478427391 10.150465942456899 H 0.0 **** 0.52
12567 H 24.56050769654383 48.84524985222955 9.44307664668749 H 0.0 **** 0.52
12568 M 24.100137956923163 48.66805848171385 10.163928724932155 M 0.0 **** -1.04
12569 O 15.796669520675117 11.54962996882034 35.53700338985848 O 0.0 **** 0.0
12570 H 16.24287560983465 11.766373463938455 34.718375602576515 H 0.0 **** 0.52
12571 H 15.150803485647359 10.887643649846671 35.2903069843994 H 0.0 **** 0.52
12572 M 15.771110537460956 11.492633284059476 35.40062759996403 M 0.0 **** -1.04
12573 O 10.52566313773388 37.861362724079626 30.576507564055504 O 0.0 **** 0.0
12574 H 11.295538941524143 37.45019346223525 30.969521964484343 H 0.0 **** 0.52
12575 H 10.323164396432091 37.31500769026819 29.817087766502866 H 0.0 **** 0.52
12576 M 10.59829459417925 37.738786961789515 30.529602396188665 M 0.0 **** -1.04
12577 O 29.8272008568769 31.689951809108763 10.86580804316454 O 0.0 **** 0.0
12578 H 29.142094894032592 32.132793733442135 10.365058523876552 H 0.0 **** 0.52
12579 H 29.372755669675687 31.328771845293787 11.626897782072193 H 0.0 **** 0.52
12580 M 29.681324175555677 31.700405644648903 10.89913458199192 M 0.0 **** -1.04
12581 O 33.17114943536106 14.144217463202564 38.74976914331042 O 0.0 **** 0.0
12582 H 33.329786274532395 14.938297434854626 38.23937871448137 H 0.0 **** 0.52
12583 H 32.422536694737225 13.729138282218576 38.321380281766565 H 0.0 **** 0.52
12584 M 33.09562509762678 14.192733820439186 38.62959373163523 M 0.0 **** -1.04
12585 O 14.390447804967266 34.75426330324912 10.661727394968096 O 0.0 **** 0.0
12586 H 13.976160483930556 33.930773543754505 10.919524151531961 H 0.0 **** 0.52
12587 H 13.694882074306086 35.246733599576885 10.225963446993152 H 0.0 **** 0.52
12588 M 14.248372829553702 34.7118890608724 10.638945644525311 M 0.0 **** -1.04
12589 O 23.487032431476422 24.565718511454808 42.6137753866021 O 0.0 **** 0.0
12590 H 23.970761857654473 25.326177093015602 42.9361687384011 H 0.0 **** 0.52
12591 H 22.569778655015117 24.769862161297965 42.79598199123917 H 0.0 **** 0.52
12592 M 23.431535923124507 24.68919968351312 42.67837041418825 M 0.0 **** -1.04
12593 O 10.750739978826616 43.975736555224614 41.503111934141 O 0.0 **** 0.0
12594 H 11.505292988135281 44.173019479400196 40.94817147783371 H 0.0 **** 0.52
12595 H 11.13163419337915 43.667399752384206 42.32535077892041 H 0.0 **** 0.52
12596 M 10.89609162558859 43.96152017926475 41.5373293373613 M 0.0 **** -1.04
12597 O 11.260033798933875 13.086476097209058 12.03463680418622 O 0.0 **** 0.0
12598 H 10.403097749965255 13.397826291240989 12.32609964612554 H 0.0 **** 0.52
12599 H 11.860773980990096 13.799604121038598 12.250941429409686 H 0.0 **** 0.52
12600 M 11.227237223669874 13.217622098454257 12.09963717102614 M 0.0 **** -1.04
12601 O 6.928330842262386 31.44876521504787 0.5989591219431275 O 0.0 **** 0.0
12602 H 7.659264380347414 30.839612823649098 0.4945569855392403 H 0.0 **** 0.52
12603 H 6.203920585218998 31.037444007418276 0.12750086472145017 H 0.0 **** 0.52
12604 M 6.929166170413429 31.318131603148746 0.5252419594904831 M 0.0 **** -1.04
12605 O 18.894058227572984 48.30827961389768 45.42037828205408 O 0.0 **** 0.0
12606 H 18.610220460057334 48.65544845237454 46.26603710357484 H 0.0 **** 0.52
12607 H 18.514275021597314 48.905621850821824 44.77603739141635 H 0.0 **** 0.52
12608 M 18.80910644286125 48.429188484437574 45.446149518366525 M 0.0 **** -1.04
12609 O 3.5176277442115236 14.512901989281403 5.536984573379523 O 0.0 **** 0.0
12610 H 2.7455044780442677 15.042608718387427 5.73564250002697 H 0.0 **** 0.52
12611 H 3.6873439915818267 14.674663309403954 4.608944608767754 H 0.0 **** 0.52
12612 M 3.4405117193683026 14.601418049330746 5.443614168840842 M 0.0 **** -1.04
12613 O 32.83350756819185 9.303736338817487 14.84024076887033 O 0.0 **** 0.0
12614 H 32.807058781163846 9.786329987103699 15.666456203191132 H 0.0 **** 0.52
12615 H 33.750947297551306 9.341025864355124 14.569791874152003 H 0.0 **** 0.52
12616 M 32.94756607984385 9.370287917790662 14.911385090709217 M 0.0 **** -1.04
12617 O 11.169449055022257 8.527665918136904 40.03938257076737 O 0.0 **** 0.0
12618 H 10.368283598314761 8.586484704401364 39.518898567713066 H 0.0 **** 0.52
12619 H 11.516651685132095 7.656463926559255 39.84784733260652 H 0.0 **** 0.52
12620 M 11.111335519044571 8.423670137172977 39.94823521664309 M 0.0 **** -1.04
12621 O 2.2291312915685424 37.733047057191 26.426503047644058 O 0.0 **** 0.0
12622 H 2.995824427998407 37.47554060570437 25.91454517254467 H 0.0 **** 0.52
12623 H 2.404820833870197 38.63836005666792 26.68295885070785 H 0.0 **** 0.52
12624 M 2.3497676952327495 37.815974020784594 26.39379570421568 M 0.0 **** -1.04
12625 O 14.95835348569168 26.031918416652804 47.798914769573976 O 0.0 **** 0.0
12626 H 15.112166022084235 26.67677341014269 47.108457399357206 H 0.0 **** 0.52
12627 H 14.02726859401662 25.82157257405594 47.72774844150606 H 0.0 **** 0.52
12628 M 14.85885306881583 26.087541273113498 47.70141775954451 M 0.0 **** -1.04
12629 O 1.3639368594822727 13.953302520933814 14.287859693102433 O 0.0 **** 0.0
12630 H 2.0579239915055396 13.608302087138282 13.726091003995258 H 0.0 **** 0.52
12631 H 1.453044148382375 14.904129046565995 14.222924845106235 H 0.0 **** 0.52
12632 M 1.4641830837583427 14.030855880341873 14.207633879644916 M 0.0 **** -1.04
12633 O 7.6984738857129615 42.39932619396424 26.875411393189847 O 0.0 **** 0.0
12634 H 7.7483283635200575 42.47526635702898 27.82828886392906 H 0.0 **** 0.52
12635 H 6.7751685899221865 42.22084062161835 26.69686405973132 H 0.0 **** 0.52
12636 M 7.58666142993414 42.386199385177314 26.97453559339233 M 0.0 **** -1.04
12637 O 27.26442844004056 34.882418237452264 22.179825781130447 O 0.0 **** 0.0
12638 H 27.160451611842277 34.20574460754635 21.510848288051683 H 0.0 **** 0.52
12639 H 26.795811038807102 35.640065032777294 21.82968476088423 H 0.0 **** 0.52
12640 M 27.191129242674606 34.892783957381596 22.049365728160755 M 0.0 **** -1.04
12641 O 27.29235329687807 5.500563950698764 2.174102358367163 O 0.0 **** 0.0
12642 H 27.48108094794969 6.395754214710524 2.455606430363006 H 0.0 **** 0.52
12643 H 28.119605688176293 5.183521007519445 1.8116574976058937 H 0.0 **** 0.52
12644 M 27.42241127791005 5.5745737083229585 2.163740887946209 M 0.0 **** -1.04
12645 O 3.937333634600552 29.205031215217826 21.080611913283395 O 0.0 **** 0.0
12646 H 4.3686959290463 29.950949976677258 21.497458041274815 H 0.0 **** 0.52
12647 H 3.1146911325626507 29.10508099154167 21.55967104888152 H 0.0 **** 0.52
12648 M 3.8872445156145923 29.287723322758822 21.1952987517899 M 0.0 **** -1.04
12649 O 46.3154460437619 47.3720878512282 14.01460034193839 O 0.0 **** 0.0
12650 H 46.83104061869562 48.178498117604136 14.004934248548437 H 0.0 **** 0.52
12651 H 46.96421616179252 46.67343797562414 14.099543307538717 H 0.0 **** 0.52
12652 M 46.46449984175198 47.38588231513766 14.024236749940428 M 0.0 **** -1.04
12653 O 5.210849155742343 41.42590432656656 8.383196878414108 O 0.0 **** 0.0
12654 H 5.560111208204594 40.567208607735644 8.144688362750445 H 0.0 **** 0.52
12655 H 4.29717106863162 41.25776447467321 8.613738690950887 H 0.0 **** 0.52
12656 M 5.138597421456797 41.294456623350285 8.382177038284487 M 0.0 **** -1.04
12657 O 33.18853682376937 37.66680973508304 14.513480361535319 O 0.0 **** 0.0
12658 H 33.603635028187426 38.390117301654534 14.983318946432298 H 0.0 **** 0.52
12659 H 33.20881431595411 36.936137701772104 15.131490544606471 H 0.0 **** 0.52
12660 M 33.24427020414596 37.66586737277022 14.65273841800625 M 0.0 **** -1.04
12661 O 49.8691101574059 48.98851603260948 48.98173698245309 O 0.0 **** 0.0
12662 H 50.527680674338704 49.610534748983554 49.290942581816935 H 0.0 **** 0.52
12663 H 49.50450579393223 48.608017342973625 49.78080696611292 H 0.0 **** 0.52
12664 M 49.90674209641601 49.01943358718779 49.123610056763304 M 0.0 **** -1.04
12665 O 16.755580213689782 26.209106479122823 32.612946131288574 O 0.0 **** 0.0
12666 H 17.514664775476785 25.989257492242096 33.153024954949224 H 0.0 **** 0.52
12667 H 17.074839179664973 26.883560445851092 32.0134340688891 H 0.0 **** 0.52
12668 M 16.893621343442344 26.267301457134234 32.6053374590719 M 0.0 **** -1.04
12669 O 3.7297648797188696 23.227956800882442 46.279785771304034 O 0.0 **** 0.0
12670 H 4.323590849978299 23.62685466424153 46.91577360298177 H 0.0 **** 0.52
12671 H 2.911609638028741 23.715215800268542 46.37689075555495 H 0.0 **** 0.52
12672 M 3.701047158151256 23.341395980429844 46.37363058873462 M 0.0 **** -1.04
12673 O 5.763901889692846 42.360532558685556 35.23029849420706 O 0.0 **** 0.0
12674 H 5.456044959951804 42.13749822303332 36.10876784283081 H 0.0 **** 0.52
12675 H 4.995992362329439 42.245658825288054 34.670523056489685 H 0.0 **** 0.52
12676 M 5.626189811456015 42.31727659816395 35.27109472881325 M 0.0 **** -1.04
12677 O 34.23942647218719 4.298217705866016 36.18300378486151 O 0.0 **** 0.0
12678 H 34.87588789729746 3.6694447210460055 36.52328385873152 H 0.0 **** 0.52
12679 H 34.18874505557167 4.97665636465257 36.85634030757774 H 0.0 **** 0.52
12680 M 34.31441353995301 4.30457568238684 36.31275980787562 M 0.0 **** -1.04
12681 O 8.022212873647073 44.92664213141003 26.249752474892436 O 0.0 **** 0.0
12682 H 7.450073105942105 45.31066108682583 25.58536281635049 H 0.0 **** 0.52
12683 H 7.78710436052702 43.99884317782133 26.261704649749106 H 0.0 **** 0.52
12684 M 7.918875247241291 44.857031407446456 26.166232835866168 M 0.0 **** -1.04
12685 O 18.38617044144013 34.59435149809699 29.36093767536303 O 0.0 **** 0.0
12686 H 18.922888691922864 35.38575170971964 29.31794499130061 H 0.0 **** 0.52
12687 H 18.895541820988484 33.93317620575086 28.892304900003094 H 0.0 **** 0.52
12688 M 18.520083175561723 34.61102146559007 29.29544332439405 M 0.0 **** -1.04
12689 O 13.904382257256401 45.647542233283296 2.1984388536032946 O 0.0 **** 0.0
12690 H 13.819240741773463 44.72313721155153 2.4317955650384633 H 0.0 **** 0.52
12691 H 14.324917030810132 46.049238044916926 2.9587150933100306 H 0.0 **** 0.52
12692 M 13.947316468980906 45.58062813576957 2.3256359672558102 M 0.0 **** -1.04
12693 O 6.520279840442932 49.67334408705151 12.786678870140033 O 0.0 **** 0.0
12694 H 5.813219911577242 49.43458537017519 13.386086959966077 H 0.0 **** 0.52
12695 H 6.748695449745071 48.8545123127085 12.346714394506721 H 0.0 **** 0.52
12696 M 6.459006920759251 49.537959689600484 12.807089053364495 M 0.0 **** -1.04
12697 O 49.938953956355036 31.083222712196843 24.862462598797453 O 0.0 **** 0.0
12698 H 49.62285605503681 31.534867999883815 24.079949051019543 H 0.0 **** 0.52
12699 H 50.15256602052962 30.200467861348372 24.56023575683569 H 0.0 **** 0.52
12700 M 49.9258340467337 31.0280357562109 24.723601741841467 M 0.0 **** -1.04
12701 O 33.7214612449746 45.3930060210097 12.733661006709152 O 0.0 **** 0.0
12702 H 33.385878642107095 46.25814898252439 12.968481794267685 H 0.0 **** 0.52
12703 H 34.02321573061185 45.48968689779498 11.830430048572646 H 0.0 **** 0.52
12704 M 33.71713026075659 45.51613150540978 12.64809658045645 M 0.0 **** -1.04
12705 O 33.84448844944903 45.95800748681847 30.48535232212528 O 0.0 **** 0.0
12706 H 34.511472981736404 46.642689318409836 30.536060151929547 H 0.0 **** 0.52
12707 H 33.8933825039565 45.51223663670643 31.33100350337058 H 0.0 **** 0.52
12708 M 33.93612945359013 45.98859132491192 30.600097644873074 M 0.0 **** -1.04
12709 O 17.652671643330066 32.3791962949784 41.33361629797209 O 0.0 **** 0.0
12710 H 16.81001697790486 32.507048037418514 40.897937784191065 H 0.0 **** 0.52
12711 H 17.83619913125571 31.44528421400814 41.231854042745425 H 0.0 **** 0.52
12712 M 17.568295236159116 32.27601056260249 41.264817026718845 M 0.0 **** -1.04
12713 O 27.644817215616982 30.50422928116278 30.993475314391034 O 0.0 **** 0.0
12714 H 28.5033666022879 30.083550737546233 31.039855704268017 H 0.0 **** 0.52
12715 H 27.496504697025713 30.64450661012347 30.058299713147473 H 0.0 **** 0.52
12716 M 27.735736312383388 30.46833450712242 30.879698174693463 M 0.0 **** -1.04
12717 O 42.20020126991915 5.49374103118907 8.282048722144195 O 0.0 **** 0.0
12718 H 41.26100787788491 5.461213978768954 8.100151655202765 H 0.0 **** 0.52
12719 H 42.33515726402529 6.346345989187659 8.695666582926174 H 0.0 **** 0.52
12720 M 42.09724939471029 5.598720795833561 8.311712177441711 M 0.0 **** -1.04
12721 O 24.928265522406292 47.62864367166088 38.99228675804485 O 0.0 **** 0.0
12722 H 24.899029245292667 46.695387042876064 39.20301379566322 H 0.0 **** 0.52
12723 H 25.858232024925258 47.81726394257434 38.86654109945635 H 0.0 **** 0.52
12724 M 25.04356994572281 47.53332056531989 39.003165475025334 M 0.0 **** -1.04
12725 O 43.13974356206732 36.89980301209464 0.6841039821874805 O 0.0 **** 0.0
12726 H 43.0043561204383 37.57397937144008 1.3499750478624506 H 0.0 **** 0.52
12727 H 43.44428204026575 36.1361061429549 1.1742580241518454 H 0.0 **** 0.52
12728 M 43.1613971175775 36.888343302710965 0.8320896277739376 M 0.0 **** -1.04
12729 O 12.244856177576423 34.35621467756331 21.46506534753036 O 0.0 **** 0.0
12730 H 12.816818126638722 33.666432156057354 21.128481638073726 H 0.0 **** 0.52
12731 H 11.995638727739845 34.86050453522705 20.690590852954685 H 0.0 **** 0.52
12732 M 12.286172195069135 34.332469558581536 21.32283562815672 M 0.0 **** -1.04
12733 O 27.217418471866953 23.71452102519276 30.55811160786878 O 0.0 **** 0.0
12734 H 27.04713078704126 22.841940078360203 30.203382171043557 H 0.0 **** 0.52
12735 H 28.039708365863966 23.98373469359529 30.148731561749685 H 0.0 **** 0.52
12736 M 27.30088232304708 23.637282876454897 30.46029551302378 M 0.0 **** -1.04
12737 O 3.965372797709577 5.321384715754298 21.79704794087366 O 0.0 **** 0.0
12738 H 4.021546272118954 5.865828219427485 21.011774934882084 H 0.0 **** 0.52
12739 H 4.191116236244426 4.441383493014526 21.495608519440143 H 0.0 **** 0.52
12740 M 4.001461959144308 5.2784294587589375 21.657935039583357 M 0.0 **** -1.04
12741 O 0.6547040956928223 5.66356482913819 30.535039616460256 O 0.0 **** 0.0
12742 H 1.1234773183347029 4.94513943931767 30.959710801238685 H 0.0 **** 0.52
12743 H 1.2427731185275461 5.955225155238124 29.83837701390833 H 0.0 **** 0.52
12744 M 0.7899930935945526 5.608933348783577 30.5002210868387 M 0.0 **** -1.04
12745 O 26.29303584637137 49.623688594535366 3.2332369750379732 O 0.0 **** 0.0
12746 H 26.496804104202635 49.948192471116755 2.3560794826456 H 0.0 **** 0.52
12747 H 26.433465039345798 48.67845660713068 3.178061178663592 H 0.0 **** 0.52
12748 M 26.337097633573464 49.5442278528067 3.113886371275411 M 0.0 **** -1.04
12749 O 2.621699148378149 40.94915615791393 0.9292380426817317 O 0.0 **** 0.0
12750 H 2.1382945922950225 40.27169863975615 0.456375431425478 H 0.0 **** 0.52
12751 H 3.4513140746095665 41.025268711130295 0.45788484418252295 H 0.0 **** 0.52
12752 M 2.6660187883164723 40.87217626203234 0.8083669916942853 M 0.0 **** -1.04
12753 O 1.4417629877722788 47.847480365377926 19.22850330230862 O 0.0 **** 0.0
12754 H 0.668958808454228 48.10585429489809 18.726263045567862 H 0.0 **** 0.52
12755 H 2.165327249554018 48.31793404160354 18.814551389619215 H 0.0 **** 0.52
12756 M 1.4354596126491614 47.940779587334525 19.111219028693803 M 0.0 **** -1.04
12757 O 21.680926195530073 20.63693441391046 5.019060109964556 O 0.0 **** 0.0
12758 H 21.409766360409094 20.899674422005788 5.898644091151155 H 0.0 **** 0.52
12759 H 21.450812361924587 19.709440546668056 4.964005687617622 H 0.0 **** 0.52
12760 M 21.616756820769968 20.55183765635043 5.1246098074376505 M 0.0 **** -1.04
12761 O 45.05040826761075 41.83496852428123 49.71935118283768 O 0.0 **** 0.0
12762 H 44.754363011103116 41.009630465957116 49.33542120063017 H 0.0 **** 0.52
12763 H 45.33051247312946 42.361200354505335 48.97045183048954 H 0.0 **** 0.52
12764 M 45.04836759300886 41.79667911012457 49.57433443239931 M 0.0 **** -1.04
12765 O 41.56542698915488 24.386651501032887 41.748824766897584 O 0.0 **** 0.0
12766 H 41.667614859027935 23.842818286883197 42.52987006382826 H 0.0 **** 0.52
12767 H 40.85396248537734 23.973153432862738 41.25987947611727 H 0.0 **** 0.52
12768 M 41.48743127954528 24.26410084157603 41.786217260023705 M 0.0 **** -1.04
12769 O 0.6587373664161622 1.0570546599355461 11.480283387659703 O 0.0 **** 0.0
12770 H 1.5441183873437845 0.9387467831286831 11.824274764301004 H 0.0 **** 0.52
12771 H 0.7888868089398324 1.3572514253658396 10.5807425917633 H 0.0 **** 0.52
12772 M 0.7887374182624067 1.0803391393578892 11.409165626129951 M 0.0 **** -1.04
12773 O 49.40186429688389 35.035239012733776 0.18653110989293964 O 0.0 **** 0.0
12774 H 49.57162959614855 35.91793965509825 0.5155416538641191 H 0.0 **** 0.52
12775 H 50.23089565102423 34.57155463988854 0.30456884481132107 H 0.0 **** 0.52
12776 M 49.52972258384298 35.088878402464736 0.243759184805171 M 0.0 **** -1.04
12777 O 31.864782542017394 35.098894856374834 3.2643190399100708 O 0.0 **** 0.0
12778 H 32.82164607528483 35.07738982923295 3.2776590550967484 H 0.0 **** 0.52
12779 H 31.64937153260568 35.88379611534694 2.7605763707437285 H 0.0 **** 0.52
12780 M 31.959697489019785 35.19661922595225 3.201541471621338 M 0.0 **** -1.04
12781 O 34.89972144697471 19.310943512211647 9.047782884598313 O 0.0 **** 0.0
12782 H 34.91093878253738 19.659994389449693 9.938999375635397 H 0.0 **** 0.52
12783 H 35.75577574066651 18.89602511186163 8.941756410578606 H 0.0 **** 0.52
12784 M 35.010743271888394 19.302511521163968 9.148297425684731 M 0.0 **** -1.04
12785 O 30.965727472181147 10.8581252987087 6.393118977118391 O 0.0 **** 0.0
12786 H 31.48160563304815 11.101964429589422 7.161651242894806 H 0.0 **** 0.52
12787 H 30.1760104857101 10.453922679853235 6.752557547146836 H 0.0 **** 0.52
12788 M 30.930672733981364 10.837596164076764 6.537513562633308 M 0.0 **** -1.04
12789 O 16.43680576593752 5.630500679584181 33.03018496753245 O 0.0 **** 0.0
12790 H 15.838332665843268 5.4913255423504745 33.764138738424066 H 0.0 **** 0.52
12791 H 16.311937044156508 6.548478526413407 32.78944877644972 H 0.0 **** 0.52
12792 M 16.344208910518063 5.730196777392298 33.093323168174145 M 0.0 **** -1.04
12793 O 0.8034105608400696 37.73679770124046 9.46555331876094 O 0.0 **** 0.0
12794 H 0.19717088658974702 37.85326868905402 8.734023692138031 H 0.0 **** 0.52
12795 H 0.5336140887903043 36.91326782486289 9.872046743327061 H 0.0 **** 0.52
12796 M 0.6912677772390093 37.6462854524983 9.423944476625778 M 0.0 **** -1.04
12797 O 1.0797549338476227 25.52157437744649 20.992948956335823 O 0.0 **** 0.0
12798 H 0.34769393696926765 25.75844314290886 21.562341970162038 H 0.0 **** 0.52
12799 H 1.8599203425370343 25.703787402838785 21.516750345600073 H 0.0 **** 0.52
12800 M 1.0859128741256006 25.575222073079857 21.13289112544416 M 0.0 **** -1.04
12801 O 35.95556285005455 48.07013393021153 15.699282146261819 O 0.0 **** 0.0
12802 H 35.88488389260745 47.52795212524834 16.484949467522974 H 0.0 **** 0.52
12803 H 35.05691483864585 48.34302805839155 15.514375608446944 H 0.0 **** 0.52
12804 M 35.83147647695816 48.035662060682455 15.776187109137709 M 0.0 **** -1.04
12805 O 3.4876015506698472 30.325927445705002 33.521074210939105 O 0.0 **** 0.0
12806 H 4.227689705460967 30.92464753482282 33.62123515879415 H 0.0 **** 0.52
12807 H 3.7691706040925026 29.52134845601734 33.956504578765504 H 0.0 **** 0.52
12808 M 3.6183861480849244 30.299574925656447 33.5896358777658 M 0.0 **** -1.04
12809 O 32.69327126230874 16.152399898904836 48.0893333341863 O 0.0 **** 0.0
12810 H 32.61434630576735 15.726920817370257 48.943128279966395 H 0.0 **** 0.52
12811 H 32.93476756843993 15.445802383148145 47.490476691909805 H 0.0 **** 0.52
12812 M 32.71408306972329 16.007479921446304 48.121967837684366 M 0.0 **** -1.04
12813 O 17.02090194767086 42.6925721610072 8.704923959445273 O 0.0 **** 0.0
12814 H 16.21277594155365 42.18116951118799 8.664560297515749 H 0.0 **** 0.52
12815 H 17.646239447906957 42.11867109584314 9.147437890240067 H 0.0 **** 0.52
12816 M 16.997502460946514 42.553639678372704 8.756403320377977 M 0.0 **** -1.04
12817 O 10.870471170398405 4.232530143260694 48.431575044101216 O 0.0 **** 0.0
12818 H 10.911827982068527 4.0693653623096 49.37385738234944 H 0.0 **** 0.52
12819 H 11.454625114170488 3.5779478874678166 48.0488009004636 H 0.0 **** 0.52
12820 M 10.950544502155314 4.127848301990112 48.50319983463876 M 0.0 **** -1.04
12821 O 29.83722024327426 44.91898135920909 12.326289582169784 O 0.0 **** 0.0
12822 H 30.691874310181117 44.96365055669549 11.89757182964879 H 0.0 **** 0.52
12823 H 30.034758412014405 44.67466203057489 13.230455387176086 H 0.0 **** 0.52
12824 M 29.97191408727631 44.893423355734164 12.387152905175752 M 0.0 **** -1.04
12825 O 24.923188556391164 24.726685513891418 37.500860791503946 O 0.0 **** 0.0
12826 H 25.333495387116717 24.569971308321637 38.3513421236543 H 0.0 **** 0.52
12827 H 24.065338487665908 25.094853649197038 37.712459743694886 H 0.0 **** 0.52
12828 M 24.865897422842195 24.75375401028906 37.63682012937169 M 0.0 **** -1.04
12829 O 43.34989791597664 1.518075411245995 0.4354409207789482 O 0.0 **** 0.0
12830 H 42.76636830259642 2.193548573726389 0.7810684081909518 H 0.0 **** 0.52
12831 H 43.26576270850417 0.7901736352161493 1.051320567319436 H 0.0 **** 0.52
12832 M 43.264428832913445 1.5113638095891986 0.5585256949938264 M 0.0 **** -1.04
12833 O 20.973721291843248 16.10946257934314 41.870694675744424 O 0.0 **** 0.0
12834 H 21.723888066575824 15.636131571836406 41.5109237627275 H 0.0 **** 0.52
12835 H 20.41650482110998 16.28754375675266 41.11305018823064 H 0.0 **** 0.52
12836 M 20.998420984333237 16.0716672733224 41.72765162488315 M 0.0 **** -1.04
12837 O 30.6162775959329 36.90571797251872 1.7636306791749803 O 0.0 **** 0.0
12838 H 29.887677089525067 36.291157664172694 1.8512930905897207 H 0.0 **** 0.52
12839 H 30.205363799479738 37.729087581655385 1.5001141339055408 H 0.0 **** 0.52
12840 M 30.47040529187692 36.93244861416616 1.741119530769815 M 0.0 **** -1.04
12841 O 3.1629942437623626 47.99971562080095 47.722165037044974 O 0.0 **** 0.0
12842 H 2.664069192699529 48.69465193735025 47.29278579102079 H 0.0 **** 0.52
12843 H 4.074885920490907 48.18540138298088 47.498103109091296 H 0.0 **** 0.52
12844 M 3.2158595178899887 48.11244660179877 47.638515729046105 M 0.0 **** -1.04
12845 O 38.17789239537451 19.259704958371056 11.837645443520628 O 0.0 **** 0.0
12846 H 37.626545973969435 19.898591829116047 12.289386422040593 H 0.0 **** 0.52
12847 H 37.734194891541236 19.107170983774406 11.00332288157319 H 0.0 **** 0.52
12848 M 38.05051426668575 19.321963782276754 11.788670649191104 M 0.0 **** -1.04
12849 O 6.281327905393133 3.2413933073035253 42.160596492291106 O 0.0 **** 0.0
12850 H 5.48991639415201 3.7460827535950827 42.348174167745256 H 0.0 **** 0.52
12851 H 6.072895467690189 2.7560783602408705 41.36231388988917 H 0.0 **** 0.52
12852 M 6.153335371344575 3.243873721379586 42.0824185515096 M 0.0 **** -1.04
12853 O 32.407919891020704 3.1594810245283207 7.17162507715279 O 0.0 **** 0.0
12854 H 31.842852791620626 3.60398486453554 6.539687883232183 H 0.0 **** 0.52
12855 H 33.08553114858823 3.8022061717193036 7.381323172439579 H 0.0 **** 0.52
12856 M 32.42232635762276 3.2986592288131757 7.117573162024058 M 0.0 **** -1.04
12857 O 4.656875396805454 45.28034624371836 49.84094404231705 O 0.0 **** 0.0
12858 H 4.067722802334835 45.98850577372358 50.10101666498581 H 0.0 **** 0.52
12859 H 4.0766778293864405 44.54331186342707 49.65021062232157 H 0.0 **** 0.52
12860 M 4.507183083626117 45.27664964535778 49.84982041908862 M 0.0 **** -1.04
12861 O 5.297030513076059 46.980398174833894 11.771474629112202 O 0.0 **** 0.0
12862 H 4.827227445002006 47.01666649795642 10.938287879700404 H 0.0 **** 0.52
12863 H 5.930376307475697 46.271527082341535 11.659207359183299 H 0.0 **** 0.52
12864 M 5.317966508326346 46.89429668282744 11.650444547206304 M 0.0 **** -1.04
12865 O 35.32465273736689 13.56144219711301 49.15461081535415 O 0.0 **** 0.0
12866 H 35.65351166978544 14.187087889633059 48.50912789467708 H 0.0 **** 0.52
12867 H 34.57480760837335 14.001497803443044 49.55499973397119 H 0.0 **** 0.52
12868 M 35.270761439992896 13.697866118637842 49.12323525032118 M 0.0 **** -1.04
12869 O 14.418226057012879 5.500906761821942 22.104763805398726 O 0.0 **** 0.0
12870 H 14.601126369464794 5.299412052567708 21.187062453449688 H 0.0 **** 0.52
12871 H 14.753623078138158 6.38905952341942 22.226921133691448 H 0.0 **** 0.52
12872 M 14.48457506292257 5.588807471651568 22.00292410773012 M 0.0 **** -1.04
12873 O 30.200066138121212 1.2501429579684213 6.7338209711171455 O 0.0 **** 0.0
12874 H 31.018225423590927 1.7459786662280905 6.765297272308772 H 0.0 **** 0.52
12875 H 30.10572635187172 1.0008770374945541 5.81447568945518 H 0.0 **** 0.52
12876 M 30.292724345648022 1.2817069861900592 6.620162457747703 M 0.0 **** -1.04
12877 O 26.594021320495315 46.793611188766654 3.9055779269810107 O 0.0 **** 0.0
12878 H 27.539761971813068 46.73010005908404 3.772272324785401 H 0.0 **** 0.52
12879 H 26.499444754787092 47.26510117454631 4.733213180568946 H 0.0 **** 0.52
12880 M 26.7029806978799 46.84583736240806 3.994460720230023 M 0.0 **** -1.04
12881 O 41.032931207310014 23.088177387129715 46.50517173300249 O 0.0 **** 0.0
12882 H 41.80376990963961 23.60714558109333 46.73475285677859 H 0.0 **** 0.52
12883 H 40.291341044784076 23.616235627494223 46.80085242415296 H 0.0 **** 0.52
12884 M 41.03667572270169 23.22220924264115 46.57241207284139 M 0.0 **** -1.04
12885 O 34.07080975650779 25.519483136156676 19.561284062104402 O 0.0 **** 0.0
12886 H 34.316373095320756 26.329045403666747 20.009097246850978 H 0.0 **** 0.52
12887 H 34.9009331706645 25.151331324330943 19.258649415602818 H 0.0 **** 0.52
12888 M 34.20851082440113 25.575988936355856 19.579869134982467 M 0.0 **** -1.04
12889 O 1.8163933111479054 39.799392573909316 46.72486588991568 O 0.0 **** 0.0
12890 H 1.6010736265476027 39.465950750784685 45.8538412253159 H 0.0 **** 0.52
12891 H 2.4884828143824294 40.46277395711007 46.56850375468205 H 0.0 **** 0.52
12892 M 1.8748657330771792 39.84162921006759 46.593347700627035 M 0.0 **** -1.04
12893 O 22.462054922559954 37.22867967913258 29.003659068956054 O 0.0 **** 0.0
12894 H 21.55652563551921 37.1635431111835 28.700338219980974 H 0.0 **** 0.52
12895 H 22.661475103456215 38.16406656463151 28.964787311296025 H 0.0 **** 0.52
12896 M 22.371663910333137 37.34008247620868 28.95985361133687 M 0.0 **** -1.04
12897 O 27.59523852418566 31.644849758849986 39.835764388974575 O 0.0 **** 0.0
12898 H 26.96362951040436 32.22192173601974 40.26504930878457 H 0.0 **** 0.52
12899 H 27.065108621869655 30.932650596144555 39.47804591267543 H 0.0 **** 0.52
12900 M 27.446522133634133 31.627551475489376 39.84492593186292 M 0.0 **** -1.04
12901 O 29.473326136964424 11.532016967850979 35.82802079404655 O 0.0 **** 0.0
12902 H 28.542772280511304 11.575027479723751 35.607910296153364 H 0.0 **** 0.52
12903 H 29.492464088877007 11.201692257375043 36.72621241872456 H 0.0 **** 0.52
12904 M 29.356653441430762 11.495237152676268 35.91482377792168 M 0.0 **** -1.04
12905 O 4.031748320604102 1.7350497915254834 3.306459215604008 O 0.0 **** 0.0
12906 H 4.084862680952945 2.6035000958185606 2.9074576370411833 H 0.0 **** 0.52
12907 H 3.1781286350734277 1.7216220356784362 3.739333017799339 H 0.0 **** 0.52
12908 M 3.9292737858838294 1.8445037053715083 3.3107952590357286 M 0.0 **** -1.04
12909 O 42.83307041399673 37.92904980859767 37.71791543273482 O 0.0 **** 0.0
12910 H 42.24478559927158 37.31930649230014 37.27253526709623 H 0.0 **** 0.52
12911 H 43.31748403219066 37.38491531635941 38.33879316390001 H 0.0 **** 0.52
12912 M 42.81977357616331 37.781338984470494 37.74038123533127 M 0.0 **** -1.04
12913 O 37.83254556802855 19.82843400758175 5.885540084293446 O 0.0 **** 0.0
12914 H 38.7396011496175 19.865684470491075 6.189007303686203 H 0.0 **** 0.52
12915 H 37.34203213123942 20.33551622469821 6.532450061480496 H 0.0 **** 0.52
12916 M 37.885868185997 19.898115305119646 6.0071997406484385 M 0.0 **** -1.04
12917 O 49.33745578799891 33.204335909156015 7.817017783665321 O 0.0 **** 0.0
12918 H 48.64658449243274 33.736171607252146 7.421951829008911 H 0.0 **** 0.52
12919 H 48.97870216116816 32.93432550218945 8.662368220524975 H 0.0 **** 0.52
12920 M 49.20308996708763 33.23785301058166 7.874659485339016 M 0.0 **** -1.04
12921 O 25.589305917320505 36.78291142771121 20.668093421449278 O 0.0 **** 0.0
12922 H 25.017109890886726 36.01789868879685 20.72789906008395 H 0.0 **** 0.52
12923 H 25.493134689141147 37.084503143988115 19.764754173281126 H 0.0 **** 0.52
12924 M 25.50374603104084 36.723587298947166 20.560111194165426 M 0.0 **** -1.04
12925 O 9.199940093593803 33.93714398057124 5.4394047014932845 O 0.0 **** 0.0
12926 H 9.209812319764158 33.018673443794114 5.708742665873485 H 0.0 **** 0.52
12927 H 9.935217824071344 34.016967304119866 4.831766216006111 H 0.0 **** 0.52
12928 M 9.295329366520836 33.82978696181236 5.396097566115269 M 0.0 **** -1.04
12929 O 34.65728611090408 36.04073174897117 45.827228945055985 O 0.0 **** 0.0
12930 H 35.092438062477385 35.30276815144117 46.2541719006339 H 0.0 **** 0.52
12931 H 33.72325708655667 35.87591769550042 45.95628412580138 H 0.0 **** 0.52
12932 M 34.59342353704568 35.925164967781285 45.898403585424525 M 0.0 **** -1.04
12933 O 47.2927849810655 47.52477846488106 33.34211597205292 O 0.0 **** 0.0
12934 H 47.91356686929529 48.20945457059509 33.591267828140786 H 0.0 **** 0.52
12935 H 47.66409203660153 46.7205833213289 33.70492486645215 H 0.0 **** 0.52
12936 M 47.41978453119734 47.50947795513961 33.420454740398874 M 0.0 **** -1.04
12937 O 1.5009374583073054 36.58234970367217 17.719621127004583 O 0.0 **** 0.0
12938 H 1.5198340771884986 37.14732173434901 16.947171759583753 H 0.0 **** 0.52
12939 H 1.1119802584043015 35.76460815372644 17.40939582536388 H 0.0 **** 0.52
12940 M 1.4535649429321182 36.54999186010638 17.58102509161828 M 0.0 **** -1.04
12941 O 13.277932034719186 10.275819827130837 13.235795678828186 O 0.0 **** 0.0
12942 H 14.16152658362526 9.91867773278298 13.324897300007843 H 0.0 **** 0.52
12943 H 13.19348865001394 10.891704322700942 13.963658150425267 H 0.0 **** 0.52
12944 M 13.380233112682369 10.308942495720855 13.340377195087207 M 0.0 **** -1.04
12945 O 16.723397092002777 28.96645716539748 49.973467687129514 O 0.0 **** 0.0
12946 H 17.260966379285954 28.972411634074483 49.181499198477056 H 0.0 **** 0.52
12947 H 16.29347972037411 29.82166384588467 49.97813841307026 H 0.0 **** 0.52
12948 M 16.737177814462967 29.076696504919674 49.87268330786277 M 0.0 **** -1.04
12949 O 46.36708018065031 21.641585749467577 31.29904858541704 O 0.0 **** 0.0
12950 H 45.59915343814967 21.458678873243056 31.84040019479507 H 0.0 **** 0.52
12951 H 46.13691423731969 21.303019225474273 30.43381663360767 H 0.0 **** 0.52
12952 M 46.239312153352756 21.57483076142603 31.257587752561633 M 0.0 **** -1.04
12953 O 38.74716137720293 47.61861734231519 26.514995590308107 O 0.0 **** 0.0
12954 H 37.98195321763993 48.00945360782959 26.93681740553674 H 0.0 **** 0.52
12955 H 39.06760153382286 48.298250816711196 25.921998771419837 H 0.0 **** 0.52
12956 M 38.69022523429367 47.755651106387326 26.49308329002189 M 0.0 **** -1.04
12957 O 14.40566556440092 28.06521425023786 21.894203641366826 O 0.0 **** 0.0
12958 H 14.544636327378427 27.971907342321238 22.836652304082403 H 0.0 **** 0.52
12959 H 14.340079240803718 27.16656478170376 21.571158655841174 H 0.0 **** 0.52
12960 M 14.415059611604391 27.938230858662116 21.97349482145048 M 0.0 **** -1.04
12961 O 27.178569243131435 0.5868924011002363 0.5103488053435379 O 0.0 **** 0.0
12962 H 26.537037674387932 0.26964851954218005 -0.125278150234287 H 0.0 **** 0.52
12963 H 26.83994441425577 1.4377758754620942 0.7888435253931184 H 0.0 **** 0.52
12964 M 27.053096454546704 0.6552047067118494 0.4646311613451345 M 0.0 **** -1.04
12965 O 29.46732280245827 33.86583178164446 2.6209021046856997 O 0.0 **** 0.0
12966 H 29.64254365292912 32.93285233998554 2.4981150873623714 H 0.0 **** 0.52
12967 H 30.279410519373876 34.21642218723277 2.986727511388553 H 0.0 **** 0.52
12968 M 29.593710755344528 33.79127894723058 2.652013888242435 M 0.0 **** -1.04
12969 O 43.2601840548859 5.012261320510893 38.43801212075625 O 0.0 **** 0.0
12970 H 43.849660008497274 4.277915812286579 38.60971746446855 H 0.0 **** 0.52
12971 H 43.090904183983504 4.969142648068285 37.496888695750435 H 0.0 **** 0.52
12972 M 43.31397471104609 4.912736521003512 38.3395166596077 M 0.0 **** -1.04
12973 O 5.777232397704348 3.451626160794761 48.20305100496391 O 0.0 **** 0.0
12974 H 5.9020752093465365 3.440956329329557 47.254088436448676 H 0.0 **** 0.52
12975 H 6.571967458137202 3.8610725385530014 48.545073186052655 H 0.0 **** 0.52
12976 M 5.89494952450774 3.5026747219827365 48.12535459734571 M 0.0 **** -1.04
12977 O 12.2973068069347 13.546822684122176 45.290971993946194 O 0.0 **** 0.0
12978 H 13.135848699609305 13.462950365066405 44.83705429055242 H 0.0 **** 0.52
12979 H 11.681434702380635 13.816235815315842 44.609542360201836 H 0.0 **** 0.52
12980 M 12.325811372873233 13.57057358874819 45.14563323524747 M 0.0 **** -1.04
12981 O 10.71758738995343 46.0930538399351 6.435541754810499 O 0.0 **** 0.0
12982 H 11.621426013584681 45.819716076458455 6.592355226604536 H 0.0 **** 0.52
12983 H 10.607433069003122 46.02512842140996 5.487132495990591 H 0.0 **** 0.52
12984 M 10.819189529902701 46.04936777677303 6.334207735502404 M 0.0 **** -1.04
12985 O 18.196088456937403 46.006885017900395 34.79461668364953 O 0.0 **** 0.0
12986 H 18.384760095020127 46.534539106188085 34.01859288844515 H 0.0 **** 0.52
12987 H 17.276577951710763 46.187464555389525 34.98986261644201 H 0.0 **** 0.52
12988 M 18.102532339848846 46.09754833131191 34.720270286638254 M 0.0 **** -1.04
12989 O 39.2001833065168 14.790757491113997 15.673375792755168 O 0.0 **** 0.0
12990 H 39.49865451943151 13.887527654047378 15.566983262039857 H 0.0 **** 0.52
12991 H 38.31570943285183 14.710748299640544 16.030493007571305 H 0.0 **** 0.52
12992 M 39.125167343132595 14.664890647075717 15.705472072997397 M 0.0 **** -1.04
12993 O 21.23071831781818 21.01249447895218 35.33630540609589 O 0.0 **** 0.0
12994 H 21.959477838364364 21.29576838471546 34.78413252802909 H 0.0 **** 0.52
12995 H 20.875045076198695 20.24462334804356 34.88898159798182 H 0.0 **** 0.52
12996 M 21.27847749206047 20.950460176507868 35.208357520545036 M 0.0 **** -1.04
12997 O 8.960392076349164 37.46157567434722 17.353530129728483 O 0.0 **** 0.0
12998 H 9.906862078790267 37.50797537842119 17.21836561932085 H 0.0 **** 0.52
12999 H 8.848037836406201 36.80500397249354 18.040930556351512 H 0.0 **** 0.52
13000 M 9.067169108442075 37.38346556866668 17.424223595876327 M 0.0 **** -1.04
13001 O 9.383468343726749 34.21712969290645 18.73725024876027 O 0.0 **** 0.0
13002 H 9.010991148133071 34.184554868637136 17.85609783395845 H 0.0 **** 0.52
13003 H 10.198756844933271 34.70816114982648 18.635164585594506 H 0.0 **** 0.52
13004 M 9.440153043162411 34.275817610373906 18.61138393099729 M 0.0 **** -1.04
13005 O 28.65893471299492 36.25287804880048 41.610414099939064 O 0.0 **** 0.0
13006 H 27.773090999223413 36.45030748576719 41.30622125172315 H 0.0 **** 0.52
13007 H 28.986945319358586 35.603174210379336 40.98870458021707 H 0.0 **** 0.52
13008 M 28.587524357199147 36.19498098703773 41.49188646742088 M 0.0 **** -1.04
13009 O 1.898789494075254 41.568086189354396 24.313527771619626 O 0.0 **** 0.0
13010 H 2.482247299832822 42.223651338968146 23.931376879566443 H 0.0 **** 0.52
13011 H 2.2799530566385604 41.37815133800244 25.170771780048696 H 0.0 **** 0.52
13012 M 2.022272604801885 41.627692965170944 24.374345396877597 M 0.0 **** -1.04
13013 O 49.37344117579123 16.396297890273132 9.565434158698402 O 0.0 **** 0.0
13014 H 50.03034710850064 15.700329837656824 9.583641881277757 H 0.0 **** 0.52
13015 H 49.344911735142425 16.72296593808892 10.464712632122165 H 0.0 **** 0.52
13016 M 49.45388138780882 16.34902259213456 9.6828840128722 M 0.0 **** -1.04
13017 O 14.293037195719943 36.02991138097501 22.034309002761347 O 0.0 **** 0.0
13018 H 13.9216862828615 36.52399147048577 22.765207552688874 H 0.0 **** 0.52
13019 H 13.6091509991289 35.40420514273276 21.795521316917 H 0.0 **** 0.52
13020 M 14.1579529843146 36.01306206742653 22.097305368179846 M 0.0 **** -1.04
13021 O 9.801597848582263 26.860466890628548 14.24446350474869 O 0.0 **** 0.0
13022 H 9.370637879639792 27.60537964007943 13.82540900934575 H 0.0 **** 0.52
13023 H 10.348710868191427 26.481574501205575 13.556468483080453 H 0.0 **** 0.52
13024 M 9.816466684998117 26.907321618900827 14.10274694285431 M 0.0 **** -1.04
13025 O 32.013900814830265 26.45816939241008 44.16233048024827 O 0.0 **** 0.0
13026 H 31.662109862152562 25.726833345241907 44.669892929815774 H 0.0 **** 0.52
13027 H 31.56896957353929 26.39952413054121 43.31685650106026 H 0.0 **** 0.52
13028 M 31.911910325012315 26.357042002558284 44.11907299207033 M 0.0 **** -1.04
13029 O 42.82865548330364 31.274203343935884 41.13020595232788 O 0.0 **** 0.0
13030 H 42.09283062011873 30.713956669972987 40.88339672397138 H 0.0 **** 0.52
13031 H 42.63216812570234 31.547557850714426 42.02625177071509 H 0.0 **** 0.52
13032 M 42.709307904731304 31.23747750455292 41.21331601593361 M 0.0 **** -1.04
13033 O 48.00412646291024 30.066215277749592 33.22540348327188 O 0.0 **** 0.0
13034 H 48.46555681991737 30.34719757294022 34.015567207491614 H 0.0 **** 0.52
13035 H 48.03953128099582 30.82572726754238 32.64392465996407 H 0.0 **** 0.52
13036 M 48.06772776185608 30.199411165145545 33.25211726271638 M 0.0 **** -1.04
13037 O 9.565077114415146 28.47829911141516 27.855434573779196 O 0.0 **** 0.0
13038 H 9.764299453228602 29.38803310477719 27.634246856740848 H 0.0 **** 0.52
13039 H 9.749258218494624 27.99031336273074 27.05282858770237 H 0.0 **** 0.52
13040 M 9.614157067793748 28.532288095291218 27.724375574540804 M 0.0 **** -1.04
13041 O 17.45404517299208 44.53812769504588 25.052757825770662 O 0.0 **** 0.0
13042 H 17.880226092056287 44.981287344894554 25.786384802512945 H 0.0 **** 0.52
13043 H 16.910066479665087 43.865256508667386 25.462100845246123 H 0.0 **** 0.52
13044 M 17.438965843516876 44.50872154630252 25.19907233819047 M 0.0 **** -1.04
13045 O 14.781829352454675 0.06685954312791864 23.142869344915855 O 0.0 **** 0.0
13046 H 15.219503766806321 0.7378840281152677 22.619040482332533 H 0.0 **** 0.52
13047 H 14.40579424802609 0.5461476822412479 23.88118417676104 H 0.0 **** 0.52
13048 M 14.789720108872942 0.21411459660792076 23.17032648106971 M 0.0 **** -1.04
13049 O 12.078241747869585 44.54807725792952 21.36060673313159 O 0.0 **** 0.0
13050 H 11.498566306727598 44.604948677555555 20.601020743929126 H 0.0 **** 0.52
13051 H 11.519140742068744 44.766906444551 22.1060921073759 H 0.0 **** 0.52
13052 M 11.932464099498013 44.583370459368005 21.358801921651235 M 0.0 **** -1.04
13053 O 18.99272572545281 41.42984468873177 10.22163857343184 O 0.0 **** 0.0
13054 H 19.662043317837593 42.010673313569015 9.859865371177724 H 0.0 **** 0.52
13055 H 19.262755763964318 40.55307267101876 9.948539223108183 H 0.0 **** 0.52
13056 M 19.112973251435317 41.3919603695353 10.140367458784093 M 0.0 **** -1.04
13057 O 37.86382214084806 32.20367112285067 35.28173061657529 O 0.0 **** 0.0
13058 H 38.38435558621085 32.674580163539 35.93251356539409 H 0.0 **** 0.52
13059 H 38.36136885642614 31.404360369709803 35.10916273105663 H 0.0 **** 0.52
13060 M 37.99414947073539 32.161632075166665 35.342948537050006 M 0.0 **** -1.04
13061 O 19.584095553054798 0.47443238705937124 27.57455351147658 O 0.0 **** 0.0
13062 H 18.72918704683068 0.8377063179431681 27.343484569275283 H 0.0 **** 0.52
13063 H 19.387491742939712 -0.3881084937245234 27.940063396130757 H 0.0 **** 0.52
13064 M 19.449489149310374 0.41052036484647353 27.59176414997882 M 0.0 **** -1.04
13065 O 31.553320664296745 11.37393627977869 1.1037975803375772 O 0.0 **** 0.0
13066 H 30.781352415906525 10.93857308402248 1.4653935672705316 H 0.0 **** 0.52
13067 H 31.266553073620965 12.271884863421562 0.9374235295198048 H 0.0 **** 0.52
13068 M 31.417789765875153 11.433152766820633 1.1287878079764084 M 0.0 **** -1.04
13069 O 4.108620949832783 25.48708268795402 28.08628456072441 O 0.0 **** 0.0
13070 H 3.292143447472455 25.821485497871898 28.457457128101183 H 0.0 **** 0.52
13071 H 4.233370193842923 24.636813616516115 28.507839288841208 H 0.0 **** 0.52
13072 M 4.020071336071794 25.4210449222792 28.187763633455916 M 0.0 **** -1.04
13073 O 44.107208817757815 6.0422895660991 11.601720624072577 O 0.0 **** 0.0
13074 H 45.02321231661898 6.143458069406059 11.343010790833695 H 0.0 **** 0.52
13075 H 44.096275369099814 6.256286641648535 12.53462763828005 H 0.0 **** 0.52
13076 M 44.2230692194751 6.082635044515592 11.688026800481033 M 0.0 **** -1.04
13077 O 32.493841885118975 28.20244382854744 23.751768130342555 O 0.0 **** 0.0
13078 H 31.919827355402365 27.4364606777029 23.754352899801404 H 0.0 **** 0.52
13079 H 33.37622816524565 27.841385952241538 23.836972153313013 H 0.0 **** 0.52
13080 M 32.53331738954629 28.058168964621053 23.763005702821673 M 0.0 **** -1.04
13081 O 19.872292009189554 10.390327233663996 42.73784791501672 O 0.0 **** 0.0
13082 H 20.4058718661201 11.17710491730631 42.849660959323316 H 0.0 **** 0.52
13083 H 20.083572617270985 10.080210878848499 41.857270095894876 H 0.0 **** 0.52
13084 M 19.967643136320376 10.451346314184255 42.639435889428704 M 0.0 **** -1.04
13085 O 2.66706412251621 26.103992621172978 9.369262684771797 O 0.0 **** 0.0
13086 H 2.2935215936958637 25.39365050134049 9.890903686696465 H 0.0 **** 0.52
13087 H 2.2164297732251845 26.89038785241415 9.677060521968222 H 0.0 **** 0.52
13088 M 2.5615586603106686 26.113728087093364 9.475440906381145 M 0.0 **** -1.04
13089 O 4.093444671546074 25.561285351693716 43.27740532640336 O 0.0 **** 0.0
13090 H 4.47591616701267 25.222265301448 42.468078921977536 H 0.0 **** 0.52
13091 H 4.675981107987518 25.24623871054062 43.96850926858945 H 0.0 **** 0.52
13092 M 4.216977510253237 25.47755645014456 43.262271551748 M 0.0 **** -1.04
13093 O 34.827770602900706 1.5586365973272291 8.853876556851262 O 0.0 **** 0.0
13094 H 33.969804708780664 1.874171077320171 9.137708299353704 H 0.0 **** 0.52
13095 H 35.45363385627195 2.0831795790830983 9.353255060335158 H 0.0 **** 0.52
13096 M 34.79805865065336 1.6661772565042225 8.95413720138562 M 0.0 **** -1.04
13097 O 36.28748300996745 6.484107099071364 39.9241905480804 O 0.0 **** 0.0
13098 H 35.45434805362266 6.67610523803823 39.49378355791615 H 0.0 **** 0.52
13099 H 36.472187137659496 5.573499893954109 39.694173368466146 H 0.0 **** 0.52
13100 M 36.204475567177184 6.3921158355761305 39.839648366307266 M 0.0 **** -1.04
13101 O 13.521649803522754 45.40246819959166 37.47538323482211 O 0.0 **** 0.0
13102 H 14.426288467161863 45.480486901826836 37.172447470909084 H 0.0 **** 0.52
13103 H 13.130184312481186 44.74854702493768 36.89627145446228 H 0.0 **** 0.52
13104 M 13.587342431309288 45.32874547219907 37.362470373888144 M 0.0 **** -1.04
13105 O 14.685287519207115 11.53005705392252 23.786397998517334 O 0.0 **** 0.0
13106 H 15.371116628694413 11.5200866490514 24.454056634513584 H 0.0 **** 0.52
13107 H 15.126101597567525 11.83695344743294 22.994106501406353 H 0.0 **** 0.52
13108 M 14.82951239739033 11.568066976707023 23.7704439804357 M 0.0 **** -1.04
13109 O 25.676181069628132 14.086193565381112 27.27210482757691 O 0.0 **** 0.0
13110 H 26.308220054732775 14.403565357679797 26.62710040714651 H 0.0 **** 0.52
13111 H 25.934978305585517 14.510039211430213 28.090400205918243 H 0.0 **** 0.52
13112 M 25.790219458071473 14.181078853564426 27.29428817057585 M 0.0 **** -1.04
13113 O 11.258940236131878 28.98026836706469 9.665805002103841 O 0.0 **** 0.0
13114 H 11.128095585188845 29.14321544086367 10.599912817833046 H 0.0 **** 0.52
13115 H 11.214263099955446 28.027994729805997 9.579740749596741 H 0.0 **** 0.52
13116 M 11.236471744909295 28.87922507253897 9.774365794761938 M 0.0 **** -1.04
13117 O 25.99365004123335 23.742560459635342 39.895896703192584 O 0.0 **** 0.0
13118 H 25.134031492984064 23.505311472362337 40.243743401074326 H 0.0 **** 0.52
13119 H 26.314853876268344 22.941130718724267 39.48265766239111 H 0.0 **** 0.52
13120 M 25.92472677422677 23.60959658429678 39.88752589862682 M 0.0 **** -1.04
13121 O 32.29011210163995 22.225437225829065 37.72799696161241 O 0.0 **** 0.0
13122 H 31.54796764932435 22.58729429049367 38.21225862352409 H 0.0 **** 0.52
13123 H 32.01010466726653 22.2411051870983 36.812803327812844 H 0.0 **** 0.52
13124 M 32.1592632830947 22.273765214440235 37.6728315599268 M 0.0 **** -1.04
13125 O 8.502329547723932 37.67355230447626 10.251023005976776 O 0.0 **** 0.0
13126 H 7.583634775262202 37.92094545121276 10.356019467821568 H 0.0 **** 0.52
13127 H 8.968605828884131 38.506510769091165 10.180350860633567 H 0.0 **** 0.52
13128 M 8.444414845728819 37.81185090158321 10.255416875348537 M 0.0 **** -1.04
13129 O 9.060184685910814 0.26537171291509054 48.80797539171443 O 0.0 **** 0.0
13130 H 8.40151024486004 0.41447097754906537 49.48631614570343 H 0.0 **** 0.52
13131 H 8.674583954320862 0.6349818764681743 48.01366603508449 H 0.0 **** 0.52
13132 M 8.92650474434733 0.33177320858382586 48.793130159565855 M 0.0 **** -1.04
13133 O 41.72883689071223 40.636677059182155 38.65432839736155 O 0.0 **** 0.0
13134 H 41.959491116957146 39.709013149420926 38.60466314167399 H 0.0 **** 0.52
13135 H 41.03966526133197 40.67745444573342 39.3173573812537 H 0.0 **** 0.52
13136 M 41.67014149962416 40.52314421667857 38.73284678468622 M 0.0 **** -1.04
13137 O 39.584078906444056 42.067530045561796 35.59374536489145 O 0.0 **** 0.0
13138 H 39.76681367432741 43.00649245811969 35.55930294714621 H 0.0 **** 0.52
13139 H 39.12527168105077 41.88211457975391 34.77438815531053 H 0.0 **** 0.52
13140 M 39.54873803593191 42.16399335490562 35.48444794625823 M 0.0 **** -1.04
13141 O 45.60010166740405 28.6739754875223 35.69541644098241 O 0.0 **** 0.0
13142 H 46.206475997647274 27.98843761199996 35.41510334318572 H 0.0 **** 0.52
13143 H 44.73149775686803 28.29104578279928 35.57245450655036 H 0.0 **** 0.52
13144 M 45.56653316999422 28.53719914957614 35.64379204899875 M 0.0 **** -1.04
13145 O 23.1877816913914 4.751170672022693 41.74309208111903 O 0.0 **** 0.0
13146 H 23.184717604445545 3.9498311406662587 42.26661414578721 H 0.0 **** 0.52
13147 H 22.70778175387297 5.386623071931648 42.27415599554464 H 0.0 **** 0.52
13148 M 23.12594314439746 4.729934534496707 41.87809168341715 M 0.0 **** -1.04
13149 O 5.171093544281078 2.5851996335364333 39.20009054529386 O 0.0 **** 0.0
13150 H 5.078875594434841 3.4962524463182376 38.92133147858896 H 0.0 **** 0.52
13151 H 4.903605696500449 2.072574823869971 38.43727077547287 H 0.0 **** 0.52
13152 M 5.125046987845835 2.6362035366874252 39.066755300392856 M 0.0 **** -1.04
13153 O 30.645610142613666 12.477123531524562 46.26004552963013 O 0.0 **** 0.0
13154 H 30.37367576280091 12.688950090805243 47.15302280460118 H 0.0 **** 0.52
13155 H 31.382312063428195 13.06356220971697 46.08802814319003 H 0.0 **** 0.52
13156 M 30.705106368809513 12.579310808028538 46.35233751702959 M 0.0 **** -1.04
13157 O 20.347477658247886 33.65615404821545 19.57387414864028 O 0.0 **** 0.0
13158 H 21.207938339718694 33.54412319883034 19.169787969291956 H 0.0 **** 0.52
13159 H 20.14209323080748 34.582569164220004 19.44817434568216 H 0.0 **** 0.52
13160 M 20.431335768078956 33.76040492029609 19.506054575418588 M 0.0 **** -1.04
13161 O 41.237585102982486 21.227051117351543 37.498129871396074 O 0.0 **** 0.0
13162 H 41.61861392987848 20.502620998804097 37.99436266900811 H 0.0 **** 0.52
13163 H 40.29408178896466 21.14166798228694 37.63502024779695 H 0.0 **** 0.52
13164 M 41.165581540582096 21.123384950452696 37.57917701966907 M 0.0 **** -1.04
13165 O 26.792212470328558 44.50905079916536 6.393309040421045 O 0.0 **** 0.0
13166 H 26.471163416217937 45.39254463852711 6.573855248380951 H 0.0 **** 0.52
13167 H 26.001161627859158 43.994054433531105 6.234418888183285 H 0.0 **** 0.52
13168 M 26.649849930861695 44.55622338646453 6.396081560583475 M 0.0 **** -1.04
13169 O 23.021576358174734 19.296619151178817 8.115463019824887 O 0.0 **** 0.0
13170 H 23.14019014128169 19.49775969148246 9.04374197057296 H 0.0 **** 0.52
13171 H 22.633161298731867 18.42180853654598 8.107181722265729 H 0.0 **** 0.52
13172 M 22.98703851813081 19.210380714016537 8.233234745170556 M 0.0 **** -1.04
13173 O 48.61420392598862 38.58505737971207 22.000586582605322 O 0.0 **** 0.0
13174 H 49.36947852537649 38.13392828920865 21.62339619247342 H 0.0 **** 0.52
13175 H 48.91566985161156 39.48286691716858 22.139454152729638 H 0.0 **** 0.52
13176 M 48.749480613841726 38.64223828681751 21.970078348748086 M 0.0 **** -1.04
13177 O 16.342899366681507 1.4463677386668863 14.560643371757612 O 0.0 **** 0.0
13178 H 15.623246172334461 1.7878935760750494 15.091385921275888 H 0.0 **** 0.52
13179 H 16.415327209644133 0.5271361358525226 14.817539048557663 H 0.0 **** 0.52
13180 M 16.260046552560112 1.3724141119223674 14.661470482935517 M 0.0 **** -1.04
13181 O 20.64899534305297 29.82991585035945 33.48758457698088 O 0.0 **** 0.0
13182 H 20.58775294163169 29.59169070325627 32.5625294143054 H 0.0 **** 0.52
13183 H 20.05461787387819 30.574038302550804 33.583633907805506 H 0.0 **** 0.52
13184 M 20.565067832890364 29.89467717241503 33.38146149735863 M 0.0 **** -1.04
13185 O 10.194275751132768 1.7282234732665955 25.983633465487365 O 0.0 **** 0.0
13186 H 10.340826037551293 2.6036877073823845 26.34184095659184 H 0.0 **** 0.52
13187 H 11.038995052964726 1.47738761239129 25.60978782237762 H 0.0 **** 0.52
13188 M 10.321170564081715 1.8081833232337132 25.98163186565763 M 0.0 **** -1.04
13189 O 27.40348985770755 6.671513485974954 10.386568317963645 O 0.0 **** 0.0
13190 H 27.68729290495875 7.553900554162026 10.147658937308872 H 0.0 **** 0.52
13191 H 28.217279776619947 6.183775774858025 10.51339827695075 H 0.0 **** 0.52
13192 M 27.543994556586295 6.722033851884999 10.372220741641321 M 0.0 **** -1.04
13193 O 48.59874185743685 2.3034259269769706 8.107363042635832 O 0.0 **** 0.0
13194 H 48.15311357213204 1.7468610196891632 7.468708973724581 H 0.0 **** 0.52
13195 H 48.24183608705948 2.0316521354400976 8.952931068960666 H 0.0 **** 0.52
13196 M 48.496007554531246 2.1973880175442844 8.133850918704724 M 0.0 **** -1.04
13197 O 36.00728465411342 12.051968030263076 15.910552176284181 O 0.0 **** 0.0
13198 H 36.62854829538918 11.387994825981941 16.20954918151211 H 0.0 **** 0.52
13199 H 36.15027273907287 12.795464112800147 16.49621029545568 H 0.0 **** 0.52
13200 M 36.105118600840115 12.062147539602208 16.02379881426734 M 0.0 **** -1.04
13201 O 21.285084081776684 24.799890687798094 20.711477722676502 O 0.0 **** 0.0
13202 H 21.923688915473658 24.68551622356074 20.007680136678353 H 0.0 **** 0.52
13203 H 21.039591704321364 25.72390269063329 20.664960388344387 H 0.0 **** 0.52
13204 M 21.335407449137517 24.903534681132506 20.615428125159635 M 0.0 **** -1.04
13205 O 36.29913936326511 23.797497395285777 39.27938435312359 O 0.0 **** 0.0
13206 H 36.5993742473254 23.963774279532718 40.17293895767074 H 0.0 **** 0.52
13207 H 35.939392030073776 24.635059317964277 38.98731969157622 H 0.0 **** 0.52
13208 M 36.29152167161582 23.926001959404285 39.35638248604672 M 0.0 **** -1.04
13209 O 49.47332766187553 18.583934226025896 49.54190739569037 O 0.0 **** 0.0
13210 H 49.508396120815064 19.372403773583386 50.08349075775124 H 0.0 **** 0.52
13211 H 48.59887691932246 18.598698039421176 49.15287472374048 H 0.0 **** 0.52
13212 M 49.36587601791867 18.68675834601506 49.56143532915568 M 0.0 **** -1.04
13213 O 39.22544112535984 15.612079698689428 26.141082143724166 O 0.0 **** 0.0
13214 H 38.64873373629444 16.343135512398575 25.919283091478125 H 0.0 **** 0.52
13215 H 38.77937011162637 14.84021608379554 25.79254706378594 H 0.0 **** 0.52
13216 M 39.0945122979676 15.606855203623496 26.068072646691288 M 0.0 **** -1.04
13217 O 3.1109249273634907 22.26675864089632 11.565152914244852 O 0.0 **** 0.0
13218 H 3.7643982766450517 22.848431110232088 11.953557690620098 H 0.0 **** 0.52
13219 H 3.343601954992646 22.229932995670147 10.637395705837461 H 0.0 **** 0.52
13220 M 3.2243639350282494 22.336506754856064 11.496108592131575 M 0.0 **** -1.04
13221 O 11.737020333947061 40.55575056025479 6.067028747216723 O 0.0 **** 0.0
13222 H 12.199903009355028 39.71839653290321 6.038653272135031 H 0.0 **** 0.52
13223 H 11.855053021053196 40.86489982674969 6.965206560753678 H 0.0 **** 0.52
13224 M 11.811384738371615 40.48813435769273 6.1783741460739 M 0.0 **** -1.04
13225 O 3.700703401388938 13.889082834955008 12.445483619364953 O 0.0 **** 0.0
13226 H 4.406861998072093 13.731432565873622 11.81881378122692 H 0.0 **** 0.52
13227 H 3.66132629411516 14.841906046453134 12.527979467515253 H 0.0 **** 0.52
13228 M 3.786060142297142 13.990875168373147 12.375822932167523 M 0.0 **** -1.04
13229 O 36.69104412823793 48.32520610188309 33.74639182996158 O 0.0 **** 0.0
13230 H 36.30160565280365 49.13902111909164 33.42659085621116 H 0.0 **** 0.52
13231 H 37.49423939050985 48.60087011421109 34.188111157935346 H 0.0 **** 0.52
13232 M 36.74401029067958 48.46467306048699 33.761999263190425 M 0.0 **** -1.04
13233 O 36.78833989249664 11.533987257479463 44.093774707871624 O 0.0 **** 0.0
13234 H 37.61784908397893 11.865333672015442 44.43779856756777 H 0.0 **** 0.52
13235 H 36.117992702093574 12.002522945185161 44.591104756716014 H 0.0 **** 0.52
13236 M 36.80871454940902 11.636382043325602 44.201478169896845 M 0.0 **** -1.04
13237 O 28.23820197825964 25.6399060861084 22.756288908960855 O 0.0 **** 0.0
13238 H 28.08388866401532 24.69534035789731 22.77082661184345 H 0.0 **** 0.52
13239 H 27.4123918151178 26.022579471760036 23.052645107511996 H 0.0 **** 0.52
13240 M 28.11273418643553 25.56797662748424 22.796087256487123 M 0.0 **** -1.04
13241 O 17.27138680998417 8.500513470426846 23.97505123779314 O 0.0 **** 0.0
13242 H 17.57359589334862 7.632812626378957 24.24337038728751 H 0.0 **** 0.52
13243 H 16.787401577207667 8.830753290258087 24.73197112410998 H 0.0 **** 0.52
13244 M 17.24811735825944 8.431711185011373 24.106294368021192 M 0.0 **** -1.04
13245 O 9.45593304270735 23.139771392453735 45.87389579943026 O 0.0 **** 0.0
13246 H 9.513537168898026 24.094481646347994 45.91181213659999 H 0.0 **** 0.52
13247 H 9.3220691928463 22.87113499003806 46.78282053445672 H 0.0 **** 0.52
13248 M 9.446170946521931 23.22759640839904 45.99510312371919 M 0.0 **** -1.04
13249 O 16.835613677816706 38.578231853893016 22.982128138113936 O 0.0 **** 0.0
13250 H 16.18875041382337 38.77770324633235 22.30536546127748 H 0.0 **** 0.52
13251 H 17.022416664540916 39.42284570802735 23.391959548602323 H 0.0 **** 0.52
13252 M 16.776720825210134 38.71188767632361 22.947957382192026 M 0.0 **** -1.04
13253 O 11.597395382436586 45.79935665410517 32.1701483497105 O 0.0 **** 0.0
13254 H 11.726932160588824 45.97503099910258 33.10212842905335 H 0.0 **** 0.52
13255 H 12.414613595510222 46.078714541052584 31.757421650123185 H 0.0 **** 0.52
13256 M 11.718591757834105 45.85760694847467 32.236619674470695 M 0.0 **** -1.04
13257 O 4.6739373241329805 9.811379692707623 44.70180022965603 O 0.0 **** 0.0
13258 H 3.83526087360784 9.516907486256182 44.34664433668098 H 0.0 **** 0.52
13259 H 5.322782368390921 9.241522106411564 44.28889438268546 H 0.0 **** 0.52
13260 M 4.649636482883805 9.700733951684859 44.60347880254017 M 0.0 **** -1.04
13261 O 34.29638886132996 44.34575094286593 32.770017334084095 O 0.0 **** 0.0
13262 H 33.909852664621994 43.525628939198334 32.46306604617735 H 0.0 **** 0.52
13263 H 35.205813524580684 44.12285025132379 32.968740270445636 H 0.0 **** 0.52
13264 M 34.36332477872959 44.21223098214083 32.75616227411282 M 0.0 **** -1.04
13265 O 4.292425878225067 29.11354958070863 31.2306535334142 O 0.0 **** 0.0
13266 H 4.189738129873237 29.939949736631725 31.702613357472924 H 0.0 **** 0.52
13267 H 5.207514094819492 28.86974001338911 31.36993336773466 H 0.0 **** 0.52
13268 M 4.396423142451625 29.18812832187012 31.308899379241016 M 0.0 **** -1.04
13269 O 22.62141843569133 5.898482522524447 21.188084778171675 O 0.0 **** 0.0
13270 H 22.990250085323723 5.609929107856824 20.353262038361624 H 0.0 **** 0.52
13271 H 22.646257607606955 5.119328364652858 21.743540411424057 H 0.0 **** 0.52
13272 M 22.671813330600493 5.761802693328612 21.152322291385758 M 0.0 **** -1.04
13273 O 44.55661086264668 9.715261893775606 39.132891279678475 O 0.0 **** 0.0
13274 H 45.50467124056273 9.786706100692086 39.02196218261852 H 0.0 **** 0.52
13275 H 44.351714149402085 10.32263644762778 39.84376550118339 H 0.0 **** 0.52
13276 M 44.65174547638454 9.80215903346253 39.20969181127281 M 0.0 **** -1.04
13277 O 15.900230827183108 35.89754546544927 3.825697956407126 O 0.0 **** 0.0
13278 H 15.119202149905476 35.353222568354845 3.726022221341431 H 0.0 **** 0.52
13279 H 16.376620946040603 35.78668602207613 3.002903357607302 H 0.0 **** 0.52
13280 M 15.86123324643107 35.81367414234482 3.7076102541592704 M 0.0 **** -1.04
13281 O 30.281313662645623 47.865707756994645 15.26655965597734 O 0.0 **** 0.0
13282 H 29.407482558164556 47.64186157815469 14.946338231165294 H 0.0 **** 0.52
13283 H 30.2272164583341 47.74664539839985 16.214781501621616 H 0.0 **** 0.52
13284 M 30.162527676688654 47.82181069129433 15.34695133566589 M 0.0 **** -1.04
13285 O 47.0503818137315 16.536054130754223 46.441011801587976 O 0.0 **** 0.0
13286 H 46.59604706348463 16.996170898597597 45.73524937485214 H 0.0 **** 0.52
13287 H 46.890244540661655 17.071083126194196 47.218398052901186 H 0.0 **** 0.52
13288 M 46.97172148760406 16.663445447846428 46.45018100073776 M 0.0 **** -1.04
13289 O 35.53149058248962 17.18573573704363 17.404128340853248 O 0.0 **** 0.0
13290 H 35.158139191747054 16.44025223460413 16.93392430274797 H 0.0 **** 0.52
13291 H 34.86087529186818 17.86628350435221 17.34618626088188 H 0.0 **** 0.52
13292 M 35.39785048560135 17.17742332008163 17.336518770658216 M 0.0 **** -1.04
13293 O 17.058303105358235 40.54287406800685 48.89778533690763 O 0.0 **** 0.0
13294 H 16.36599279801527 40.72833101289427 49.53224661970757 H 0.0 **** 0.52
13295 H 17.086920963269094 41.32006641876152 48.339768288905105 H 0.0 **** 0.52
13296 M 16.97334186620637 40.666104659907354 48.90757065379654 M 0.0 **** -1.04
13297 O 42.23081484701211 15.011211574855368 40.09908138889847 O 0.0 **** 0.0
13298 H 41.60234765140301 15.530315830737711 39.597296853113455 H 0.0 **** 0.52
13299 H 41.7320890588367 14.248838635014227 40.39283124178473 H 0.0 **** 0.52
13300 M 42.08651986639662 14.980069730403388 40.07245001112146 M 0.0 **** -1.04
13301 O 22.086793148172333 33.09178026030772 40.628123143593115 O 0.0 **** 0.0
13302 H 21.284910059961298 33.234433615189815 40.1252686055646 H 0.0 **** 0.52
13303 H 22.418003977254376 33.97196141775702 40.80647575466127 H 0.0 **** 0.52
13304 M 22.026541113061942 33.22271623219338 40.58658293545195 M 0.0 **** -1.04
13305 O 34.066924945556345 48.651841462415625 9.046222952422795 O 0.0 **** 0.0
13306 H 34.2783065891693 49.58498764513833 9.074210401164372 H 0.0 **** 0.52
13307 H 33.44242475115694 48.56874526999062 8.325582215483024 H 0.0 **** 0.52
13308 M 34.01404038318165 48.760658338346005 8.957554992881583 M 0.0 **** -1.04
13309 O 27.263757843289703 38.00483522889208 22.696671571595342 O 0.0 **** 0.0
13310 H 26.352092681392797 37.862885931220845 22.441826042846554 H 0.0 **** 0.52
13311 H 27.718206278415906 38.182787353413495 21.873240550587038 H 0.0 **** 0.52
13312 M 27.20522811376816 38.00944445502639 22.5586383794328 M 0.0 **** -1.04
13313 O 19.204620237303217 38.86681701019887 9.379341197594613 O 0.0 **** 0.0
13314 H 18.95819438173632 38.800349191122095 8.45679811286764 H 0.0 **** 0.52
13315 H 18.955758233298155 38.022605645893215 9.755645367766867 H 0.0 **** 0.52
13316 M 19.141216937294246 38.7502386781456 9.309416081923244 M 0.0 **** -1.04
13317 O 12.58499378269384 5.977552178902012 32.537755507437154 O 0.0 **** 0.0
13318 H 13.173239696959458 6.571673851306033 32.071693164826925 H 0.0 **** 0.52
13319 H 12.900962362226664 5.102244430020704 32.31363638414104 H 0.0 **** 0.52
13320 M 12.700744673636835 5.941556908392695 32.4494040689211 M 0.0 **** -1.04
13321 O 21.91063620955378 0.6003224185666449 40.73557792014385 O 0.0 **** 0.0
13322 H 21.003871906249902 0.2984579889072137 40.681857254604026 H 0.0 **** 0.52
13323 H 21.902357701124025 1.4607924666098757 40.31635114691547 H 0.0 **** 0.52
13324 M 21.7934997669983 0.6718305074351343 40.67503443833268 M 0.0 **** -1.04
13325 O 28.791418447765437 15.429462010802489 1.5883740587363775 O 0.0 **** 0.0
13326 H 28.64528370705265 14.639843501717266 2.109310387717713 H 0.0 **** 0.52
13327 H 27.968744011934483 15.561858126761358 1.1173049181604569 H 0.0 **** 0.52
13328 M 28.667398910810878 15.345329594207296 1.5947572347814543 M 0.0 **** -1.04
13329 O 29.349284681831676 27.291624665195485 16.279632448460156 O 0.0 **** 0.0
13330 H 29.1617871778014 27.41975008475424 15.349762656452768 H 0.0 **** 0.52
13331 H 28.65964991233413 26.701966699600575 16.584484689654285 H 0.0 **** 0.52
13332 M 29.237000021668223 27.232543004129752 16.19962213747663 M 0.0 **** -1.04
13333 O 27.079364115386767 44.25371985237878 37.96900349887304 O 0.0 **** 0.0
13334 H 27.174740546992 43.54981075327309 37.327408002911916 H 0.0 **** 0.52
13335 H 26.424744857042967 44.83884454774862 37.58778015038969 H 0.0 **** 0.52
13336 M 27.00777408853297 44.23851397761448 37.838069920407754 M 0.0 **** -1.04
13337 O 42.783766022998776 39.22290414267838 16.428121131460703 O 0.0 **** 0.0
13338 H 42.88245841135745 39.23888402154077 17.380083871095042 H 0.0 **** 0.52
13339 H 41.84542136368079 39.342940906080884 16.282076702372244 H 0.0 **** 0.52
13340 M 42.67627977606422 39.240315297779226 16.531288836916264 M 0.0 **** -1.04
13341 O 17.455674634107197 47.392496521542334 7.884725235211734 O 0.0 **** 0.0
13342 H 16.977477927492487 47.76205220333549 8.6270092903629 H 0.0 **** 0.52
13343 H 17.0241583618225 46.55529972689093 7.714067970941029 H 0.0 **** 0.52
13344 M 17.339220533549934 47.3326324536767 7.957901017455521 M 0.0 **** -1.04
13345 O 42.78049658813095 38.80734155032612 19.32454675613991 O 0.0 **** 0.0
13346 H 42.87601371765388 39.53269326155043 19.94177398072256 H 0.0 **** 0.52
13347 H 41.9092757024585 38.45337075903939 19.50317229679486 H 0.0 **** 0.52
13348 M 42.68119686919294 38.85488315489421 19.426425801757393 M 0.0 **** -1.04
13349 O 40.37043280898885 8.96907058051682 12.978191571100544 O 0.0 **** 0.0
13350 H 41.08140107635707 9.15406544227588 12.364571734107157 H 0.0 **** 0.52
13351 H 39.58607902106574 8.927183634388342 12.431141564815627 H 0.0 **** 0.52
13352 M 40.361038438792434 8.987390075930847 12.829611252345327 M 0.0 **** -1.04
13353 O 15.253675144665355 2.086807178888328 19.772480014236834 O 0.0 **** 0.0
13354 H 14.840176674997839 2.9487255806893202 19.724049077670514 H 0.0 **** 0.52
13355 H 16.00264309675107 2.212340309442246 20.355161834813984 H 0.0 **** 0.52
13356 M 15.296619334427826 2.213213108637402 19.840871063314353 M 0.0 **** -1.04
13357 O 47.160324946257134 22.693151759802856 38.70748311457376 O 0.0 **** 0.0
13358 H 46.2176377035703 22.680765848523222 38.54190575791857 H 0.0 **** 0.52
13359 H 47.37930974570772 21.78497868123942 38.91603867597854 H 0.0 **** 0.52
13360 M 47.06768196212606 22.575308899361715 38.71298441717694 M 0.0 **** -1.04
13361 O 49.497664277221446 7.750751343834516 6.56369806972659 O 0.0 **** 0.0
13362 H 50.105003022969306 8.298043450559405 6.065864009540455 H 0.0 **** 0.52
13363 H 48.749896991416364 7.628723175713944 5.978733782265216 H 0.0 **** 0.52
13364 M 49.47968772234393 7.805190299790979 6.425085951983987 M 0.0 **** -1.04
13365 O 8.617599261334476 7.291858561686362 48.01641184248479 O 0.0 **** 0.0
13366 H 9.085593249898977 8.047831022074215 48.37097778082158 H 0.0 **** 0.52
13367 H 7.745376180789556 7.626065059670061 47.80721683096152 H 0.0 **** 0.52
13368 M 8.565852793222993 7.431416069624501 48.03502114663843 M 0.0 **** -1.04
13369 O 16.797728139705725 12.48808306214318 2.072091717998731 O 0.0 **** 0.0
13370 H 17.234268111584953 11.795817581454772 1.5756739272866511 H 0.0 **** 0.52
13371 H 16.924599713672393 12.242723598648368 2.9885698826504026 H 0.0 **** 0.52
13372 M 16.869851471133614 12.36805501374642 2.1258654023415033 M 0.0 **** -1.04
13373 O 43.41116610526661 38.73092553054634 9.998063310481056 O 0.0 **** 0.0
13374 H 43.21407616177435 39.30761962917682 10.736173846864032 H 0.0 **** 0.52
13375 H 42.56868351747157 38.33909420527736 9.768020500235421 H 0.0 **** 0.52
13376 M 43.27808790158104 38.75458954889025 10.063102582368364 M 0.0 **** -1.04
13377 O 5.829494004989655 12.260802718898734 47.48952600599618 O 0.0 **** 0.0
13378 H 5.607411784170601 13.060198586469756 47.96688821438775 H 0.0 **** 0.52
13379 H 6.039986041131499 12.560100085095906 46.605024334189196 H 0.0 **** 0.52
13380 M 5.828010089931588 12.401449083185916 47.437406745507396 M 0.0 **** -1.04
13381 O 24.12827335320004 45.88368593251919 27.451251363062877 O 0.0 **** 0.0
13382 H 23.83844887793963 46.60351034204893 28.01168345110562 H 0.0 **** 0.52
13383 H 24.948247454324562 46.193873966188185 27.066993896343824 H 0.0 **** 0.52
13384 M 24.196138461371433 46.01554030152436 27.473803962383734 M 0.0 **** -1.04
13385 O 48.583586870441415 47.975991920700935 1.1420302306846912 O 0.0 **** 0.0
13386 H 48.47701760192902 47.02479996464654 1.15228041812813 H 0.0 **** 0.52
13387 H 48.859638315919106 48.19615697003296 2.0317222315135077 H 0.0 **** 0.52
13388 M 48.605283099509954 47.88241210748496 1.257233554884368 M 0.0 **** -1.04
13389 O 48.56205890687108 1.6329102790591037 28.731967599379658 O 0.0 **** 0.0
13390 H 49.11927702164111 2.094331824573829 29.35872645538471 H 0.0 **** 0.52
13391 H 48.79159475487713 0.7100362424174417 28.840804455277283 H 0.0 **** 0.52
13392 M 48.66277230922774 1.5738383928050135 28.826132928684697 M 0.0 **** -1.04
13393 O 39.31197559144427 48.688997619388914 19.753296948944737 O 0.0 **** 0.0
13394 H 38.787736758254546 47.89466829060627 19.651104091202257 H 0.0 **** 0.52
13395 H 39.80736007898538 48.54746501220833 20.56001323882012 H 0.0 **** 0.52
13396 M 39.308281754620275 48.569195836292735 19.843485256327085 M 0.0 **** -1.04
13397 O 47.93968661101496 33.790745306489946 42.300586687468325 O 0.0 **** 0.0
13398 H 47.02378616148444 33.97390044955463 42.091278775769375 H 0.0 **** 0.52
13399 H 47.99803475793332 32.8353466160156 42.306750751803534 H 0.0 **** 0.52
13400 M 47.82990946375488 33.6918886042472 42.27458236174883 M 0.0 **** -1.04
13401 O 45.2213355373472 15.519133767397406 37.6205274803746 O 0.0 **** 0.0
13402 H 45.65156889513327 15.616623782297774 38.47001152519587 H 0.0 **** 0.52
13403 H 44.5122500971535 14.896422179483652 37.780698429380124 H 0.0 **** 0.52
13404 M 45.18563953992739 15.451899180377044 37.74977633436336 M 0.0 **** -1.04
13405 O 5.5679185726137845 17.31926722147786 44.60506897982134 O 0.0 **** 0.0
13406 H 4.8227258952725505 16.72185746699435 44.66845101750756 H 0.0 **** 0.52
13407 H 6.306072357549226 16.757884261859346 44.367987739205915 H 0.0 **** 0.52
13408 M 5.567017580103897 17.170926925543792 44.58283373463041 M 0.0 **** -1.04
13409 O 26.792592928454624 7.137026696539009 15.389386753327107 O 0.0 **** 0.0
13410 H 27.608240771625777 6.9202363136289495 15.840994561198485 H 0.0 **** 0.52
13411 H 26.98139875403835 7.957206065783488 14.933440343453306 H 0.0 **** 0.52
13412 M 26.921175702557758 7.214268168783732 15.388831136195618 M 0.0 **** -1.04
13413 O 42.9941896520282 13.829777586732682 45.41596095493379 O 0.0 **** 0.0
13414 H 42.826073429027566 13.460625706734888 46.28296367503389 H 0.0 **** 0.52
13415 H 42.13153066566043 14.094027930332345 45.09624350884227 H 0.0 **** 0.52
13416 M 42.86223717334615 13.816349178522117 45.48602054094878 M 0.0 **** -1.04
13417 O 48.79370947812031 34.19023263311412 45.02685108222019 O 0.0 **** 0.0
13418 H 49.0899802834935 33.31639870836677 45.28153891947491 H 0.0 **** 0.52
13419 H 48.61793504395922 34.120044999445724 44.08855134514109 H 0.0 **** 0.52
13420 M 48.80913435736289 34.06938650428581 44.93934076083711 M 0.0 **** -1.04
13421 O 23.543148116132187 20.598970819017175 26.661075681595644 O 0.0 **** 0.0
13422 H 22.744591556047055 20.07181487755997 26.686425555863252 H 0.0 **** 0.52
13423 H 23.75258419231119 20.672703301822075 25.729986315328794 H 0.0 **** 0.52
13424 M 23.46773244265644 20.540927011139463 26.54513016005964 M 0.0 **** -1.04
13425 O 18.483305016971176 30.58506550753612 28.689045624323484 O 0.0 **** 0.0
13426 H 18.602097399006812 31.27840583610123 28.039894412012657 H 0.0 **** 0.52
13427 H 18.804945495719604 30.964375542990886 29.50690872298111 H 0.0 **** 0.52
13428 M 18.539686540015154 30.722378099381185 28.710642685906805 M 0.0 **** -1.04
13429 O 20.9674861885603 13.97414379284778 36.585607824411596 O 0.0 **** 0.0
13430 H 20.631051792176894 13.10533548342023 36.8051805597404 H 0.0 **** 0.52
13431 H 21.210148772240927 13.911115021442749 35.661826637979104 H 0.0 **** 0.52
13432 M 20.955482552051166 13.854856894874912 36.49546051814254 M 0.0 **** -1.04
13433 O 10.795622215620304 7.522989377339421 26.541943698462113 O 0.0 **** 0.0
13434 H 10.88042241710646 8.475925366950875 26.511111570545015 H 0.0 **** 0.52
13435 H 10.033440656177408 7.332063917418132 25.9952666820303 H 0.0 **** 0.52
13436 M 10.708908546214897 7.6205361915639855 26.468014944963347 M 0.0 **** -1.04
13437 O 6.2781347873963185 45.045683985855455 5.13178675446324 O 0.0 **** 0.0
13438 H 7.183895430186908 44.833254748612745 5.35695488855251 H 0.0 **** 0.52
13439 H 5.987650335795976 44.31290325104142 4.588758132944041 H 0.0 **** 0.52
13440 M 6.356897599253266 44.924685512852996 5.091096410418671 M 0.0 **** -1.04
13441 O 40.292945612672156 29.29928100600532 15.766735223086284 O 0.0 **** 0.0
13442 H 41.07736452294393 29.29691089521749 15.218182597956558 H 0.0 **** 0.52
13443 H 40.44622774876557 29.998986439499113 16.4016731433704 H 0.0 **** 0.52
13444 M 40.41298365170643 29.388548417446717 15.777793212476373 M 0.0 **** -1.04
13445 O 45.461192703343755 6.678759725073697 38.84963766949843 O 0.0 **** 0.0
13446 H 44.94317849695858 7.481716962229117 38.9057533886799 H 0.0 **** 0.52
13447 H 44.814758621513896 5.984613270684476 38.72114310774568 H 0.0 **** 0.52
13448 M 45.31212894880178 6.692688331642241 38.840372020903 M 0.0 **** -1.04
13449 O 32.105100231004684 9.221402496207652 4.378307972001345 O 0.0 **** 0.0
13450 H 31.312097584750166 8.7170200677851 4.196719342210551 H 0.0 **** 0.52
13451 H 31.79274651083793 10.005188429149541 4.830352804766637 H 0.0 **** 0.52
13452 M 31.963600517922217 9.257169340608769 4.412929622354155 M 0.0 **** -1.04
13453 O 15.07639511607953 6.4636877119590315 44.07083929964008 O 0.0 **** 0.0
13454 H 14.211114045926195 6.1794534675761055 43.77634405019832 H 0.0 **** 0.52
13455 H 14.913636782214414 6.901947717676627 44.906103460539654 H 0.0 **** 0.52
13456 M 14.944792894578663 6.483404139978273 44.14006467440403 M 0.0 **** -1.04
13457 O 14.723741086804488 17.250900715978574 33.925479145533686 O 0.0 **** 0.0
13458 H 14.38929149607055 16.87968744337242 34.74191855059012 H 0.0 **** 0.52
13459 H 14.879317147273985 18.17354598234806 34.12734620511689 H 0.0 **** 0.52
13460 M 14.700843259152517 17.321491055281854 34.05583494305289 M 0.0 **** -1.04
13461 O 24.878251362193584 43.08727716258039 12.073653214730813 O 0.0 **** 0.0
13462 H 24.976387955630816 42.63276429959302 12.910321972367893 H 0.0 **** 0.52
13463 H 24.06900719883896 42.73535937215803 11.702833246979418 H 0.0 **** 0.52
13464 M 24.78722079578662 42.984043376141415 12.133287140436835 M 0.0 **** -1.04
13465 O 11.436925224060417 13.544588253024884 48.04238471225124 O 0.0 **** 0.0
13466 H 10.617961277900804 14.003162454559721 47.85467147632366 H 0.0 **** 0.52
13467 H 11.410940643506073 12.768273589519488 47.48302065892375 H 0.0 **** 0.52
13468 M 11.328761368432986 13.503914017840017 47.94675012435578 M 0.0 **** -1.04
13469 O 9.61568644965925 27.28830142792316 6.461936919652338 O 0.0 **** 0.0
13470 H 10.105111166411895 26.82836020004109 7.14395445009599 H 0.0 **** 0.52
13471 H 10.237757193296012 27.379432137571722 5.740166797432863 H 0.0 **** 0.52
13472 M 9.757971541881986 27.241089425198904 6.456848703467202 M 0.0 **** -1.04
13473 O 48.82890344901733 7.890495786545216 44.01845723713488 O 0.0 **** 0.0
13474 H 49.61043021181644 7.858263723553414 44.570186499637785 H 0.0 **** 0.52
13475 H 48.16022821764582 7.4264062880332204 44.52216704222319 H 0.0 **** 0.52
13476 M 48.84334968974333 7.826960430866407 44.153566175376035 M 0.0 **** -1.04
13477 O 13.141564420147702 44.81495766776642 40.317451890218884 O 0.0 **** 0.0
13478 H 13.428062725395364 44.994517479980054 39.421960392320955 H 0.0 **** 0.52
13479 H 13.780422670370328 44.18563658330069 40.65218231519223 H 0.0 **** 0.52
13480 M 13.260021980378006 44.75738306002075 40.24566740246421 M 0.0 **** -1.04
13481 O 8.071410128205613 21.69600522615635 5.491194604926093 O 0.0 **** 0.0
13482 H 8.19050117840797 21.610496592272543 6.43709851465978 H 0.0 **** 0.52
13483 H 7.596945985387549 20.904636892327073 5.236537103387938 H 0.0 **** 0.52
13484 M 8.025918268289551 21.58375411212314 5.579683146905644 M 0.0 **** -1.04
13485 O 4.335179126708354 33.98137650134922 26.15018030673101 O 0.0 **** 0.0
13486 H 4.5967434990592295 34.31880161813112 25.293466629075755 H 0.0 **** 0.52
13487 H 3.4283481593992775 33.699360557560375 26.030378458350693 H 0.0 **** 0.52
13488 M 4.252577244932311 33.98846918155701 26.025174137137142 M 0.0 **** -1.04
13489 O 31.776730079142297 7.850019934601262 29.294982248675964 O 0.0 **** 0.0
13490 H 30.878527481213958 8.065888627740263 29.044262985201406 H 0.0 **** 0.52
13491 H 32.13437086728896 8.669856131337687 29.635849395207522 H 0.0 **** 0.52
13492 M 31.707531116921533 7.982602641558327 29.306522766537217 M 0.0 **** -1.04
13493 O 26.074451601702002 48.020650638123314 45.08623971661732 O 0.0 **** 0.0
13494 H 26.439941630640593 48.787311626263 45.52768896748128 H 0.0 **** 0.52
13495 H 26.563572030229377 47.96033492113157 44.26565929853803 H 0.0 **** 0.52
13496 M 26.183852989879597 48.1110717247098 45.03770647629341 M 0.0 **** -1.04
13497 O 3.785473705674761 19.425471943222707 3.4665709435343146 O 0.0 **** 0.0
13498 H 3.1164103588652807 18.79276573226106 3.7278484719994722 H 0.0 **** 0.52
13499 H 3.327690776197109 20.26594906891702 3.450386681280797 H 0.0 **** 0.52
13500 M 3.641223281417787 19.452069636804733 3.497946022033112 M 0.0 **** -1.04
13501 O 0.7397457542504478 43.149500049773366 34.08471972663277 O 0.0 **** 0.0
13502 H 1.3630922049242047 43.71333763638817 34.54270906014879 H 0.0 **** 0.52
13503 H 0.45750979831614724 42.51724951162154 34.74565161802113 H 0.0 **** 0.52
13504 M 0.7834121736100644 43.14074285176176 34.227955405331585 M 0.0 **** -1.04
13505 O 47.33212032107018 41.99587565302022 27.77895133647877 O 0.0 **** 0.0
13506 H 47.684238794164706 41.36280860839339 27.15327654876002 H 0.0 **** 0.52
13507 H 46.54455249630397 41.57727205044298 28.12642379913197 H 0.0 **** 0.52
13508 M 47.276377243075686 41.86124815621268 27.743337391330385 M 0.0 **** -1.04
13509 O 28.427412889092402 32.49785344430778 5.235862522816598 O 0.0 **** 0.0
13510 H 27.537617172116775 32.16895272140743 5.363598475397228 H 0.0 **** 0.52
13511 H 28.942802513197886 31.719626348167566 5.023814059097098 H 0.0 **** 0.52
13512 M 28.379483728931472 32.356126790191325 5.225069931782474 M 0.0 **** -1.04
13513 O 37.436778777468945 28.58635013356216 36.2620021103362 O 0.0 **** 0.0
13514 H 38.111734185113335 29.07779819868325 35.79387494922743 H 0.0 **** 0.52
13515 H 36.64899079974373 28.69302796473691 35.728860845873484 H 0.0 **** 0.52
13516 M 37.42233493050435 28.66291813877911 36.13382720314705 M 0.0 **** -1.04
13517 O 44.016066365635616 22.358950749364038 21.20896033724815 O 0.0 **** 0.0
13518 H 44.48522248038431 22.728498042245732 20.460926183460977 H 0.0 **** 0.52
13519 H 44.595549050874894 22.51225511284609 21.955235374623527 H 0.0 **** 0.52
13520 M 44.15030550718421 22.425881691165436 21.20873472505756 M 0.0 **** -1.04
13521 O 17.576309748168885 2.3992564448435343 4.053122438692867 O 0.0 **** 0.0
13522 H 16.835914092943092 2.996394456274725 4.160214273960733 H 0.0 **** 0.52
13523 H 17.174886649986018 1.5489103544871734 3.8742399427739294 H 0.0 **** 0.52
13524 M 17.430143174303474 2.3668424976140434 4.0439326269723965 M 0.0 **** -1.04
13525 O 36.984437587968706 48.46886269593524 48.828051415237624 O 0.0 **** 0.0
13526 H 36.519924257096875 49.10431454474638 49.37271350104655 H 0.0 **** 0.52
13527 H 36.32496810202042 48.156083023917816 48.20877973326222 H 0.0 **** 0.52
13528 M 36.84055300815416 48.51016827831948 48.818500287634684 M 0.0 **** -1.04
13529 O 29.42142430820001 34.102505641877976 26.248484600406414 O 0.0 **** 0.0
13530 H 29.676868113933928 34.96464422469484 26.576651211999092 H 0.0 **** 0.52
13531 H 28.48281452549987 34.17935064770669 26.077210117618364 H 0.0 **** 0.52
13532 M 29.33397040430766 34.222707603491294 26.26856873084094 M 0.0 **** -1.04
13533 O 12.158316974063718 2.0699625091809537 46.77944149675838 O 0.0 **** 0.0
13534 H 12.253785941189001 1.207091054972004 47.182637425342385 H 0.0 **** 0.52
13535 H 12.17531305710792 1.898133355172419 45.837945788051115 H 0.0 **** 0.52
13536 M 12.17271368669095 1.937507828362314 46.71053229997924 M 0.0 **** -1.04
13537 O 26.149816199015675 40.61053629537492 7.258866287082405 O 0.0 **** 0.0
13538 H 26.93406690835147 41.082758976833446 7.538480505806476 H 0.0 **** 0.52
13539 H 25.542291275418847 41.296666006811165 6.9825156388411855 H 0.0 **** 0.52
13540 M 26.172438623424398 40.75882017998787 7.259283663377147 M 0.0 **** -1.04
13541 O 15.97933914428289 23.846311728697845 3.1119840079992223 O 0.0 **** 0.0
13542 H 15.221574505725371 24.260095055794952 2.698699007208603 H 0.0 **** 0.52
13543 H 15.953867337795884 22.939490112625 2.806606539841238 H 0.0 **** 0.52
13544 M 15.879075432446498 23.783195945332835 3.019986811732059 M 0.0 **** -1.04
13545 O 44.11259484743277 46.78990370783422 1.5998496900766668 O 0.0 **** 0.0
13546 H 43.846494905742524 47.70729510980372 1.5381037213474542 H 0.0 **** 0.52
13547 H 44.68917925560107 46.656115939932306 0.8475997528121653 H 0.0 **** 0.52
13548 M 44.15234080780085 46.89021515408187 1.4956475862776912 M 0.0 **** -1.04
13549 O 45.80909573640207 10.267478080429203 18.670581886597812 O 0.0 **** 0.0
13550 H 45.78971176457315 10.61640264747005 17.779456354042473 H 0.0 **** 0.52
13551 H 46.03987190041554 9.344872130133762 18.562095385528696 H 0.0 **** 0.52
13552 M 45.83615623426296 10.194040134467462 18.54261964098439 M 0.0 **** -1.04
13553 O 38.76791072516726 16.0805444326414 31.541279448377185 O 0.0 **** 0.0
13554 H 39.015626187946985 15.850640817717101 30.645728585132094 H 0.0 **** 0.52
13555 H 38.54579037911954 17.01058944919952 31.497590431353455 H 0.0 **** 0.52
13556 M 38.77118638628758 16.170171611900155 31.421044479918113 M 0.0 **** -1.04
13557 O 43.374998617058026 18.983669414639316 4.024181401846711 O 0.0 **** 0.0
13558 H 44.29392612087898 19.223504999031842 3.9046768594675747 H 0.0 **** 0.52
13559 H 43.31616935783987 18.706893406673125 4.9386009219505205 H 0.0 **** 0.52
13560 M 43.485102504593314 18.978940696327573 4.125940492137162 M 0.0 **** -1.04
13561 O 20.15052194671597 40.270547980504254 18.29327062823546 O 0.0 **** 0.0
13562 H 19.729327319869412 40.676919052840326 19.050691358058856 H 0.0 **** 0.52
13563 H 20.380904247378865 41.00486344488071 17.7241194374258 H 0.0 **** 0.52
13564 M 20.126095413553955 40.4165702193705 18.317371681784593 M 0.0 **** -1.04
13565 O 35.45932494756963 3.8132123049574824 18.02175961121941 O 0.0 **** 0.0
13566 H 34.99749632981607 4.345647067761823 18.669413894017794 H 0.0 **** 0.52
13567 H 34.93684004565082 3.0142936679350503 17.95128318455859 H 0.0 **** 0.52
13568 M 35.333320463783366 3.7790995421597735 18.09564547057056 M 0.0 **** -1.04
13569 O 24.402257290242893 5.339022799443612 36.74507379762997 O 0.0 **** 0.0
13570 H 24.292066398678635 5.307673464127859 37.69539094060602 H 0.0 **** 0.52
13571 H 23.52913081113226 5.159695345333766 36.396190063709966 H 0.0 **** 0.52
13572 M 24.27638008382151 5.312054108680897 36.822064654613676 M 0.0 **** -1.04
13573 O 46.04659415187804 21.26163805207388 1.0026650318139207 O 0.0 **** 0.0
13574 H 45.81951797746641 22.175187962016288 1.1761361967637294 H 0.0 **** 0.52
13575 H 46.428564736496085 20.949370760842733 1.822918175678634 H 0.0 **** 0.52
13576 M 46.066422091936595 21.338609776797643 1.1298738991427735 M 0.0 **** -1.04
13577 O 31.949899952132675 35.76547373236074 43.517406321733496 O 0.0 **** 0.0
13578 H 32.87317250538357 35.88552194977417 43.73963391850853 H 0.0 **** 0.52
13579 H 31.863616658005682 34.82715408383892 43.349061659497245 H 0.0 **** 0.52
13580 M 32.05704536750751 35.66072470225797 43.52430419225322 M 0.0 **** -1.04
13581 O 19.355951011344565 31.20814199586322 12.41894712591427 O 0.0 **** 0.0
13582 H 19.81540881077442 31.862334983376062 11.892488560083342 H 0.0 **** 0.52
13583 H 20.04124859737718 30.601796431457977 12.69991044551601 H 0.0 **** 0.52
13584 M 19.502494168829518 31.214267470950503 12.387520696793436 M 0.0 **** -1.04
13585 O 19.92162908829289 47.117652708324755 0.7307594864202495 O 0.0 **** 0.0
13586 H 20.383196620898445 46.42931033944135 1.2096847189477298 H 0.0 **** 0.52
13587 H 20.275645367537024 47.93409235126668 1.083360440673232 H 0.0 **** 0.52
13588 M 20.026034865149928 47.13405093072503 0.8372054806849092 M 0.0 **** -1.04
13589 O 7.925784275244239 17.83237422232288 32.856710807224644 O 0.0 **** 0.0
13590 H 7.247542837097699 17.38895963587221 32.34720043660021 H 0.0 **** 0.52
13591 H 8.627875814154486 17.999146600139497 32.22783536290106 H 0.0 **** 0.52
13592 M 7.928836978365764 17.796960578169955 32.71098250933619 M 0.0 **** -1.04
13593 O 25.268629030235214 33.92902240385172 13.154428790685877 O 0.0 **** 0.0
13594 H 24.780891854769916 33.14346940516666 13.401912810306309 H 0.0 **** 0.52
13595 H 25.303384243952657 34.45216978325244 13.955264746375327 H 0.0 **** 0.52
13596 M 25.21064163669916 33.895431413636445 13.28862780639487 M 0.0 **** -1.04
13597 O 23.118457193755585 16.605810356715665 11.107638225890199 O 0.0 **** 0.0
13598 H 22.199288101840327 16.5013139470545 11.353478613868276 H 0.0 **** 0.52
13599 H 23.347934339092816 15.780549083157027 10.680423185512588 H 0.0 **** 0.52
13600 M 23.030168538765363 16.48678948394496 11.084420014440298 M 0.0 **** -1.04
13601 O 13.781412033954673 6.243437361194122 8.577854753822331 O 0.0 **** 0.0
13602 H 14.047098961753022 7.089592865250544 8.937937406416173 H 0.0 **** 0.52
13603 H 13.877776697521838 6.344667306915896 7.630914455360124 H 0.0 **** 0.52
13604 M 13.827759419798376 6.364714261057497 8.502729526228782 M 0.0 **** -1.04
13605 O 32.88565476792906 11.245931057873213 30.52540791430151 O 0.0 **** 0.0
13606 H 33.2890538140141 12.103865349431278 30.65749455178188 H 0.0 **** 0.52
13607 H 33.180499275321395 10.724583740661668 31.27206237670049 H 0.0 **** 0.52
13608 M 32.97503889721351 11.289018065300999 30.637898114310175 M 0.0 **** -1.04
13609 O 7.523789355135506 32.57437327003166 40.41713938069237 O 0.0 **** 0.0
13610 H 7.633145708955482 33.47475140037409 40.72306552390735 H 0.0 **** 0.52
13611 H 7.956709079369496 32.04034905354655 41.08319316904491 H 0.0 **** 0.52
13612 M 7.593207142426834 32.62127132607651 40.54156520889452 M 0.0 **** -1.04
13613 O 48.280143813040425 12.811889237606096 2.200515042255862 O 0.0 **** 0.0
13614 H 47.73798885590897 12.678682918274731 1.4229846010510487 H 0.0 **** 0.52
13615 H 49.11343975320848 12.392144313784272 1.9868330412604225 H 0.0 **** 0.52
13616 M 48.317413697613624 12.741104358019399 2.0736274223562954 M 0.0 **** -1.04
13617 O 37.29596529946912 26.846421769100218 4.025689126596468 O 0.0 **** 0.0
13618 H 37.534270940136196 25.9628680040274 4.3063529105371785 H 0.0 **** 0.52
13619 H 37.71674940759353 26.948744963833278 3.1720506859879336 H 0.0 **** 0.52
13620 M 37.38033752879265 26.746414905080698 3.9523415612997326 M 0.0 **** -1.04
13621 O 8.862735449822452 45.96492768822136 37.58482379379545 O 0.0 **** 0.0
13622 H 8.903655360471703 45.48872998323153 36.75549274058234 H 0.0 **** 0.52
13623 H 8.801349873966842 46.88558120800945 37.330151518525106 H 0.0 **** 0.52
13624 M 8.860116108966523 46.02182356336914 37.446057141624834 M 0.0 **** -1.04
13625 O 32.87360922955712 27.036422702733603 31.156356136621877 O 0.0 **** 0.0
13626 H 31.918907389038313 27.02646801860305 31.087995146121976 H 0.0 **** 0.52
13627 H 33.04836501816436 27.40437919848188 32.022553626099416 H 0.0 **** 0.52
13628 M 32.77376671492763 27.08225154057331 31.258488965828278 M 0.0 **** -1.04
13629 O 12.816640034086241 47.97273049998903 23.15222195675642 O 0.0 **** 0.0
13630 H 13.355424182810161 48.537720784825915 22.598392073145078 H 0.0 **** 0.52
13631 H 13.422011744401786 47.63676431329834 23.81319107567978 H 0.0 **** 0.52
13632 M 12.963107009426487 48.00204818059013 23.165936630498635 M 0.0 **** -1.04
13633 O 32.36693596436881 21.627170192432523 3.323087667002625 O 0.0 **** 0.0
13634 H 31.50636675715249 21.24066085785252 3.485137586406964 H 0.0 **** 0.52
13635 H 32.179291370871496 22.52617155652922 3.0532477934519306 H 0.0 **** 0.52
13636 M 32.23275162703865 21.692774825006204 3.3092893486213555 M 0.0 **** -1.04
13637 O 40.567667768890395 46.45803582350185 13.116007526823628 O 0.0 **** 0.0
13638 H 40.98016775310011 46.0420671562313 13.873003784488011 H 0.0 **** 0.52
13639 H 41.21026424053536 46.36711012273298 12.412422377806205 H 0.0 **** 0.52
13640 M 40.7027326693372 46.39314752980125 13.122844660428944 M 0.0 **** -1.04
13641 O 21.209650076885584 10.785455812237757 2.153551876851239 O 0.0 **** 0.0
13642 H 21.67484576747554 10.956406612744146 2.9724514355771845 H 0.0 **** 0.52
13643 H 21.337424632934262 11.57959557664816 1.6346638313370363 H 0.0 **** 0.52
13644 M 21.28555781900053 10.90899939464289 2.1919568076611142 M 0.0 **** -1.04
13645 O 44.40621217150838 17.145534260578827 16.980170845279886 O 0.0 **** 0.0
13646 H 44.58711341218741 17.3676636079236 17.893495529690668 H 0.0 **** 0.52
13647 H 43.65061838137302 17.684971773945428 16.74711658056499 H 0.0 **** 0.52
13648 M 44.33264462914522 17.243024300654024 17.067254249191066 M 0.0 **** -1.04
13649 O 45.76459015369884 19.78316772542695 34.860679853363756 O 0.0 **** 0.0
13650 H 45.62406061451472 20.729790186895343 34.88035322150081 H 0.0 **** 0.52
13651 H 44.91983535640633 19.420635263478147 34.5938686845153 H 0.0 **** 0.52
13652 M 45.6384610010184 19.857938642052375 34.82904331345974 M 0.0 **** -1.04
13653 O 8.40269094485519 12.055383083694785 33.21201043184721 O 0.0 **** 0.0
13654 H 8.344914657239547 11.442370237830964 32.47913579696886 H 0.0 **** 0.52
13655 H 7.888698125981842 11.646264341645917 33.90818706753585 H 0.0 **** 0.52
13656 M 8.329497400026382 11.924537488653598 33.207312790874866 M 0.0 **** -1.04
13657 O 34.78692173827197 11.731729180901247 13.270372276397282 O 0.0 **** 0.0
13658 H 34.925375842084435 11.437081242116193 14.170506084906442 H 0.0 **** 0.52
13659 H 34.335922697102745 12.57131822489444 13.359368341321677 H 0.0 **** 0.52
13660 M 34.74691162160072 11.80148866539983 13.396992499471722 M 0.0 **** -1.04
13661 O 41.84185126155188 33.33615023399933 0.2420016438793706 O 0.0 **** 0.0
13662 H 42.368389338054484 33.39945286105324 1.0388574866197824 H 0.0 **** 0.52
13663 H 41.14725153059281 32.715378231083776 0.4620059639013065 H 0.0 **** 0.52
13664 M 41.820336742850245 33.2647869789742 0.37217286739764616 M 0.0 **** -1.04
13665 O 26.93897748185233 34.892429153660004 3.120971199770281 O 0.0 **** 0.0
13666 H 26.689214053429843 35.2384390808278 3.977780922239134 H 0.0 **** 0.52
13667 H 27.828209679232174 34.560951999798895 3.245940151275576 H 0.0 **** 0.52
13668 M 27.020837146012123 34.89428936605664 3.2466504078060154 M 0.0 **** -1.04
13669 O 41.39602824154011 12.421401681883339 25.68505735101658 O 0.0 **** 0.0
13670 H 40.678732480455075 12.344002004584851 26.314123876281712 H 0.0 **** 0.52
13671 H 42.18247733258046 12.218851445318208 26.191713429974314 H 0.0 **** 0.52
13672 M 41.404880903951984 12.385564929186216 25.830444098460646 M 0.0 **** -1.04
13673 O 13.064497045160238 30.510162413514767 20.07380525592825 O 0.0 **** 0.0
13674 H 13.337511758753088 31.228410584707532 19.503006348704037 H 0.0 **** 0.52
13675 H 13.578209841993797 30.62983884149523 20.872558308698352 H 0.0 **** 0.52
13676 M 13.165207952495692 30.617426652063912 20.10298614880565 M 0.0 **** -1.04
13677 O 12.169251932319776 47.86866250574752 28.84002320001079 O 0.0 **** 0.0
13678 H 11.25493157276691 47.59380487570125 28.908582597015865 H 0.0 **** 0.52
13679 H 12.620646022122854 47.11037577950831 28.46925078017688 H 0.0 **** 0.52
13680 M 12.109991675828866 47.73640715990884 28.801336395196643 M 0.0 **** -1.04
13681 O 45.64698938323502 46.34957534914461 49.26300101947882 O 0.0 **** 0.0
13682 H 46.41337719862162 46.06168725125454 49.75898309224896 H 0.0 **** 0.52
13683 H 45.90103331391421 47.19793783482115 48.89972176409676 H 0.0 **** 0.52
13684 M 45.77761684729229 46.421323011985834 49.27998848496932 M 0.0 **** -1.04
13685 O 36.956392567082894 31.695426778241185 49.622270997422596 O 0.0 **** 0.0
13686 H 37.44151372896501 31.5391098867913 48.81205424990223 H 0.0 **** 0.52
13687 H 36.78591036052838 32.63732092077056 49.62199827409058 H 0.0 **** 0.52
13688 M 36.99666984118602 31.79599096888584 49.518518628771055 M 0.0 **** -1.04
13689 O 49.72611541504495 3.4691477851440027 41.058106189223686 O 0.0 **** 0.0
13690 H 50.20766978932177 2.6716204277743145 41.27784083763608 H 0.0 **** 0.52
13691 H 49.837809375446774 3.5640091668367404 40.11219148212255 H 0.0 **** 0.52
13692 M 49.80205863665236 3.379197549458709 40.9651463264976 M 0.0 **** -1.04
13693 O 16.742720546340454 4.616601209291688 43.045340440679766 O 0.0 **** 0.0
13694 H 16.159035104511915 3.8582041050565925 43.06469998559245 H 0.0 **** 0.52
13695 H 16.164995607422615 5.367603419905686 43.181202397924054 H 0.0 **** 0.52
13696 M 16.594045309813303 4.615654321036787 43.06521108654819 M 0.0 **** -1.04
13697 O 21.61242169438799 45.164809731822935 38.41319500060695 O 0.0 **** 0.0
13698 H 21.075498374471376 45.797160620703686 37.93562572926336 H 0.0 **** 0.52
13699 H 21.2298756975312 45.13909408657444 39.29025027388025 H 0.0 **** 0.52
13700 M 21.49471789349517 45.24246633159488 38.46433467022114 M 0.0 **** -1.04
13701 O 34.427481534949955 44.64356101571231 47.318551664030714 O 0.0 **** 0.0
13702 H 34.81932556598368 45.44054559411025 47.67562624929986 H 0.0 **** 0.52
13703 H 33.48721784638157 44.75454512141291 47.459322074197885 H 0.0 **** 0.52
13704 M 34.35727688816047 44.75979227672389 47.382281370618934 M 0.0 **** -1.04
13705 O 24.30628156312206 32.570722335518525 7.45780856015724 O 0.0 **** 0.0
13706 H 24.25113193272493 32.9037523720945 8.353507454548861 H 0.0 **** 0.52
13707 H 23.589608836284793 33.0054194400318 6.995589061786049 H 0.0 **** 0.52
13708 M 24.207478840082633 32.66900105307512 7.513299336890192 M 0.0 **** -1.04
13709 O 30.40440637244727 42.78338329495525 45.716902172435944 O 0.0 **** 0.0
13710 H 30.905828897229473 42.73183972666115 44.903177837908174 H 0.0 **** 0.52
13711 H 30.885894422082618 43.41075603967905 46.25616322756803 H 0.0 **** 0.52
13712 M 30.53023163190676 42.857096844337946 45.68176801069324 M 0.0 **** -1.04
13713 O 21.39414517713122 46.76048829285179 20.596927234976743 O 0.0 **** 0.0
13714 H 21.915310368041396 46.667436315890754 19.7994586853443 H 0.0 **** 0.52
13715 H 21.617015556146605 47.63007060748411 20.929170316854915 H 0.0 **** 0.52
13716 M 21.4893912777159 46.859894261458905 20.537371889249545 M 0.0 **** -1.04
13717 O 29.696910107822482 48.95441316172884 0.012808880177942683 O 0.0 **** 0.0
13718 H 28.891592530548312 49.45154961536498 0.15615048595995518 H 0.0 **** 0.52
13719 H 29.403003742790336 48.05188563693705 -0.11085523995242852 H 0.0 **** 0.52
13720 M 29.556195513460867 48.90251803705809 0.015328090182762821 M 0.0 **** -1.04
13721 O 45.452548752757416 20.27997993590236 7.786137912144707 O 0.0 **** 0.0
13722 H 45.01071190639982 20.790714852789527 8.464487943644894 H 0.0 **** 0.52
13723 H 45.687317237272104 20.922530902637945 7.1166292002632865 H 0.0 **** 0.52
13724 M 45.42604178906059 20.427615304528654 7.787269378962879 M 0.0 **** -1.04
13725 O 27.713204843494808 9.23553380249834 36.67464951807481 O 0.0 **** 0.0
13726 H 27.517669405355974 10.006540817172736 36.14216315461316 H 0.0 **** 0.52
13727 H 27.52806112579843 9.510750502791943 37.57253997210467 H 0.0 **** 0.52
13728 M 27.66447303580503 9.369463293113851 36.721426058004084 M 0.0 **** -1.04
13729 O 6.388654480544118 15.184496730241406 34.72299742486587 O 0.0 **** 0.0
13730 H 6.4560128378567905 15.991813364600809 34.21316217269829 H 0.0 **** 0.52
13731 H 5.91947982081094 15.440562073694608 35.51705972027442 H 0.0 **** 0.52
13732 M 6.337216659591047 15.32062308887825 34.759381943247625 M 0.0 **** -1.04
13733 O 18.66941936246345 29.476670512117227 2.3571225128017375 O 0.0 **** 0.0
13734 H 18.487715209835628 28.906686917148928 1.6099078522092825 H 0.0 **** 0.52
13735 H 18.882772601558713 30.324007002461737 1.9663147004979322 H 0.0 **** 0.52
13736 M 18.673470130966216 29.512175203775683 2.211441470120178 M 0.0 **** -1.04
13737 O 48.868388056703516 44.96028604166102 33.331978497715724 O 0.0 **** 0.0
13738 H 49.42376995801141 44.224371987727025 33.58929048512298 H 0.0 **** 0.52
13739 H 49.255188816474856 45.2792466211962 32.51657699332215 H 0.0 **** 0.52
13740 M 48.98899915580503 44.90691066091539 33.260535919817144 M 0.0 **** -1.04
13741 O 33.377601667581075 36.81886183549359 7.61905335946976 O 0.0 **** 0.0
13742 H 32.51262784665673 37.02376064471995 7.974110216456559 H 0.0 **** 0.52
13743 H 33.79833837837572 36.293930156543134 8.29997612576426 H 0.0 **** 0.52
13744 M 33.3207342198863 36.77789365525118 7.75167167575492 M 0.0 **** -1.04
13745 O 24.611363655213097 17.475534944932065 30.38128399783122 O 0.0 **** 0.0
13746 H 23.888799951615443 17.970467089678124 30.767512310012833 H 0.0 **** 0.52
13747 H 24.932797276358542 16.924044243122225 31.094563211366136 H 0.0 **** 0.52
13748 M 24.56001414423774 17.46829459635822 30.52203418853847 M 0.0 **** -1.04
13749 O 42.8658452662888 34.53083803056117 44.21364631484277 O 0.0 **** 0.0
13750 H 42.74593502428912 34.36439473833627 43.278687514487586 H 0.0 **** 0.52
13751 H 43.78499840020751 34.3208482257166 44.37884387827046 H 0.0 **** 0.52
13752 M 42.96815831495201 34.48265012224025 44.11510651165194 M 0.0 **** -1.04
13753 O 41.86622864004812 2.7915787195582666 41.9288939173778 O 0.0 **** 0.0
13754 H 41.085808964423315 2.476122974117459 41.473195942616776 H 0.0 **** 0.52
13755 H 41.92460688756737 3.7172231151183297 41.69224316321871 H 0.0 **** 0.52
13756 M 41.7737983269006 2.8696909136976245 41.84026500769708 M 0.0 **** -1.04
13757 O 40.4291964529176 40.770836417424746 0.7592835318815148 O 0.0 **** 0.0
13758 H 41.07451966234271 41.474557091469514 0.6917339053301035 H 0.0 **** 0.52
13759 H 40.92110869320795 40.02661789076863 1.1062583860025583 H 0.0 **** 0.52
13760 M 40.574776735211394 40.76565144781232 0.7950538793970026 M 0.0 **** -1.04
13761 O 36.19164576448753 38.89497706627169 5.283903646693943 O 0.0 **** 0.0
13762 H 35.57615447543113 39.31341255308112 5.885826268333183 H 0.0 **** 0.52
13763 H 35.638685681180235 38.38879995729669 4.6887149971606235 H 0.0 **** 0.52
13764 M 36.042069204599976 38.88374492508415 5.284766250637226 M 0.0 **** -1.04
13765 O 42.12215449805648 18.679485797357604 42.2385062568703 O 0.0 **** 0.0
13766 H 42.21418997662966 18.58089077945064 43.186154290056095 H 0.0 **** 0.52
13767 H 42.673944261036425 17.989218307673077 41.870691764023256 H 0.0 **** 0.52
13768 M 42.204571861813925 18.57850119511405 42.31273223528748 M 0.0 **** -1.04
13769 O 27.114422935885422 47.946166954340725 29.14835063693553 O 0.0 **** 0.0
13770 H 26.431010282580864 48.57142536079459 28.907047532084423 H 0.0 **** 0.52
13771 H 27.201679628107808 47.378593568541426 28.382535047832956 H 0.0 **** 0.52
13772 M 27.03810739666469 47.95355119465203 29.019427770750088 M 0.0 **** -1.04
13773 O 8.92338385446594 12.03984492179872 1.530891821616406 O 0.0 **** 0.0
13774 H 8.209787991101642 11.690634588462652 0.996980111882457 H 0.0 **** 0.52
13775 H 8.520934200060871 12.221633074071827 2.3801363673785447 H 0.0 **** 0.52
13776 M 8.780515713131464 12.01841280576625 1.5712581534043428 M 0.0 **** -1.04
13777 O 39.44024163507587 27.328505360827904 22.30215435502893 O 0.0 **** 0.0
13778 H 39.25846572096319 27.731301951627827 23.151236256342447 H 0.0 **** 0.52
13779 H 40.37719746328431 27.13397130801026 22.32447896582764 H 0.0 **** 0.52
13780 M 39.53691393965363 27.35516508312082 22.413705427461736 M 0.0 **** -1.04
13781 O 12.661435917756073 36.12587174670749 35.28989076903438 O 0.0 **** 0.0
13782 H 12.477597468578267 36.20043977590824 36.2263049299515 H 0.0 **** 0.52
13783 H 11.894528780789315 36.508388673050916 34.86355326004612 H 0.0 **** 0.52
13784 M 12.539728417306527 36.184384570756535 35.35518683592306 M 0.0 **** -1.04
13785 O 31.612290947562087 41.02832467035109 23.426525771842883 O 0.0 **** 0.0
13786 H 30.77915125356839 41.451063917992855 23.21820063350363 H 0.0 **** 0.52
13787 H 31.804246168460647 40.48616712550733 22.66138152049972 H 0.0 **** 0.52
13788 M 31.53021119347548 41.01303760452667 23.301909587366087 M 0.0 **** -1.04
13789 O 1.8856102023363803 9.27594857750987 43.763681410138844 O 0.0 **** 0.0
13790 H 1.4288178765531399 9.877619873261175 44.3515254416202 H 0.0 **** 0.52
13791 H 1.6529838614753203 9.57602067186167 42.88500571466884 H 0.0 **** 0.52
13792 M 1.797356068460516 9.391382866183415 43.72645192003692 M 0.0 **** -1.04
13793 O 48.21753069158706 6.233601269148764 48.1194060212014 O 0.0 **** 0.0
13794 H 47.56685486375689 6.730269665284197 47.62325031661007 H 0.0 **** 0.52
13795 H 48.54104342078547 5.577847204006403 47.501704890475054 H 0.0 **** 0.52
13796 M 48.17564936422711 6.213236339271035 47.97681836722799 M 0.0 **** -1.04
13797 O 42.261275546428955 30.226269448257508 13.720303947274388 O 0.0 **** 0.0
13798 H 42.84899800901632 30.981788270736033 13.720898964285347 H 0.0 **** 0.52
13799 H 41.484520732574545 30.526829394672134 13.248557571637477 H 0.0 **** 0.52
13800 M 42.237077045792 30.36146037900036 13.659991035805831 M 0.0 **** -1.04
13801 O 18.851854103241546 33.83128727065834 46.82312633731108 O 0.0 **** 0.0
13802 H 19.344092829248673 33.601970175850255 47.61138019600581 H 0.0 **** 0.52
13803 H 18.30573403497301 33.06454392285704 46.649675310631295 H 0.0 **** 0.52
13804 M 18.84495637644213 33.703779004045465 46.90182948336886 M 0.0 **** -1.04
13805 O 19.31659972972733 0.16214516935767875 40.497428543851576 O 0.0 **** 0.0
13806 H 18.683004440502543 0.4307200090162766 39.832106090398774 H 0.0 **** 0.52
13807 H 19.653203174106167 -0.6770793522420036 40.18337326345014 H 0.0 **** 0.52
13808 M 19.27858116805092 0.08909420985126104 40.37205586141138 M 0.0 **** -1.04
13809 O 33.96986227288128 11.188850475592787 21.702133791280588 O 0.0 **** 0.0
13810 H 33.85373762535714 11.62356687929524 22.546979054452578 H 0.0 **** 0.52
13811 H 33.73794057127682 11.855328956428878 21.05541290183517 H 0.0 **** 0.52
13812 M 33.92530798752631 11.329817392006014 21.72749576203357 M 0.0 **** -1.04
13813 O 26.95131959043784 6.815476426186629 36.21952083675369 O 0.0 **** 0.0
13814 H 26.909026636863334 7.766673472659216 36.31782355062144 H 0.0 **** 0.52
13815 H 26.060085607694724 6.515819031583596 36.398788499898906 H 0.0 **** 0.52
13816 M 26.831816194391273 6.898882092263128 36.2550538773029 M 0.0 **** -1.04
13817 O 45.1307583777749 5.642905475873946 5.806161928321554 O 0.0 **** 0.0
13818 H 44.30695913147141 5.160183958873892 5.7386188157809475 H 0.0 **** 0.52
13819 H 45.12923716035294 5.996946903679092 6.695477194012509 H 0.0 **** 0.52
13820 M 45.025106708546524 5.62643322018797 5.911359434298956 M 0.0 **** -1.04
13821 O 6.5857084593014505 48.19371512114652 1.5339428606485153 O 0.0 **** 0.0
13822 H 6.775303315819841 49.11978472218987 1.3833508310912783 H 0.0 **** 0.52
13823 H 7.429223788059325 47.81262493807428 1.7778309432160186 H 0.0 **** 0.52
13824 M 6.717959763921179 48.26347923839718 1.5458859815394521 M 0.0 **** -1.04
13825 O 29.129117095883153 9.807731229476374 17.47004676323245 O 0.0 **** 0.0
13826 H 29.56315440373631 10.531024927397262 17.922468932155937 H 0.0 **** 0.52
13827 H 29.659426796600357 9.039492215004252 17.681728625124478 H 0.0 **** 0.52
13828 M 29.2525648579365 9.801977296970264 17.55506010104326 M 0.0 **** -1.04
13829 O 41.38949955570015 44.14834505588241 42.99069829910583 O 0.0 **** 0.0
13830 H 41.550792089581044 44.72920054338582 42.24717921171261 H 0.0 **** 0.52
13831 H 40.514466837228646 43.793873494080394 42.83291539266597 H 0.0 **** 0.52
13832 M 41.29813232502694 44.177324538954835 42.875319885812964 M 0.0 **** -1.04
13833 O 24.339426748085078 28.409829785579074 27.43362308374652 O 0.0 **** 0.0
13834 H 23.91766701859242 28.667232110645532 28.253435487743094 H 0.0 **** 0.52
13835 H 25.026882384752597 27.798880930127694 27.69890769584772 H 0.0 **** 0.52
13836 M 24.37343953475973 28.364571533809862 27.572529250126628 M 0.0 **** -1.04
13837 O 31.574176040903765 45.28523888035365 15.35467482132721 O 0.0 **** 0.0
13838 H 31.924892177997048 45.92921600011845 14.739434594468063 H 0.0 **** 0.52
13839 H 32.348360013151535 44.8701968178172 15.73494804685598 H 0.0 **** 0.52
13840 M 31.71817699187198 45.31454562083325 15.324595753527326 M 0.0 **** -1.04
13841 O 22.86812306599832 47.325880712458726 18.482974396590595 O 0.0 **** 0.0
13842 H 23.719929975034482 46.90754379732404 18.357881524082543 H 0.0 **** 0.52
13843 H 22.938784669720107 48.158494008680044 18.016079048882567 H 0.0 **** 0.52
13844 M 22.986210965141197 47.3789133014863 18.40719283913717 M 0.0 **** -1.04
13845 O 39.57288684393544 46.79294275559283 37.64595395732867 O 0.0 **** 0.0
13846 H 39.36286775444489 45.87551281467454 37.82043175877331 H 0.0 **** 0.52
13847 H 40.045225058930555 47.08358018004424 38.426117444378164 H 0.0 **** 0.52
13848 M 39.60646727036483 46.712705252100726 37.768159620242436 M 0.0 **** -1.04
13849 O 2.0296986079116834 44.210513540036104 5.560807011036971 O 0.0 **** 0.0
13850 H 2.9577037717783767 44.21036245751889 5.795403029434759 H 0.0 **** 0.52
13851 H 1.8567511886814856 43.316693328196095 5.265166376864052 H 0.0 **** 0.52
13852 M 2.1263551055905126 44.09607378473638 5.552992280369267 M 0.0 **** -1.04
13853 O 32.195114653901406 4.398365086035855 39.0542541936575 O 0.0 **** 0.0
13854 H 31.269355453441168 4.592564731954858 39.20083050079381 H 0.0 **** 0.52
13855 H 32.21864010810926 3.456913689745866 38.88294854784712 H 0.0 **** 0.52
13856 M 32.07961768118922 4.302707535128039 39.051088626152485 M 0.0 **** -1.04
13857 O 23.678185200463115 26.733127134849283 40.46973896542172 O 0.0 **** 0.0
13858 H 23.532355606283833 27.67706949426352 40.40700102721382 H 0.0 **** 0.52
13859 H 24.01104303615999 26.600182507865597 41.35729749493735 H 0.0 **** 0.52
13860 M 23.70212700396331 26.83694546844535 40.57532636793978 M 0.0 **** -1.04
13861 O 10.924538213195548 2.441642793947409 22.32721455564639 O 0.0 **** 0.0
13862 H 11.634816816086566 2.0271230170956684 21.837411912267427 H 0.0 **** 0.52
13863 H 11.064221298174544 2.1650365044623854 23.23286695421116 H 0.0 **** 0.52
13864 M 11.033343876781544 2.3531691788734292 22.38044845935778 M 0.0 **** -1.04
13865 O 8.994231399770705 4.602764091350295 14.304337052841035 O 0.0 **** 0.0
13866 H 9.792970398684737 5.129781325493703 14.28204339106155 H 0.0 **** 0.52
13867 H 9.26734571073014 3.769157261869772 14.687398454659927 H 0.0 **** 0.52
13868 M 9.131441823248608 4.563516884731591 14.350519540557059 M 0.0 **** -1.04
13869 O 13.39584473083852 23.026353082476106 12.27021671811965 O 0.0 **** 0.0
13870 H 13.167359703785385 22.168108522474984 11.913228772453676 H 0.0 **** 0.52
13871 H 13.753674942148777 22.8378857685669 13.13778036614457 H 0.0 **** 0.52
13872 M 13.412402504901028 22.89236075810393 12.33557629334342 M 0.0 **** -1.04
13873 O 17.777501877129986 4.8541752677580305 6.2148825641929335 O 0.0 **** 0.0
13874 H 18.525972803565736 5.273213791808274 5.790117030860081 H 0.0 **** 0.52
13875 H 18.05657257349554 3.949311508718729 6.354774826768967 H 0.0 **** 0.52
13876 M 17.909039525546397 4.7919838306048135 6.178414656014915 M 0.0 **** -1.04
13877 O 37.182897035290814 13.085722568293974 10.726760275244462 O 0.0 **** 0.0
13878 H 36.76523530672779 13.394853313699976 9.922879378995205 H 0.0 **** 0.52
13879 H 38.05586559399121 12.805887336105855 10.451353641147138 H 0.0 **** 0.52
13880 M 37.24118195348342 13.089472657876648 10.588598399499364 M 0.0 **** -1.04
13881 O 49.27254479161742 4.16031571703651 19.67315474689806 O 0.0 **** 0.0
13882 H 48.6602959911309 3.6509889095545627 20.20415956631025 H 0.0 **** 0.52
13883 H 48.74819625316178 4.473058296791463 18.93594503649772 H 0.0 **** 0.52
13884 M 49.12704632528877 4.135150455009743 19.64675791824138 M 0.0 **** -1.04
13885 O 3.64600961398677 8.301468236444629 40.741686401977006 O 0.0 **** 0.0
13886 H 3.424919451195997 7.55094133111813 41.29309970768737 H 0.0 **** 0.52
13887 H 2.8994515397563774 8.893710482790848 40.83185298941066 H 0.0 **** 0.52
13888 M 3.5221380408264693 8.281205681763943 40.82381670231501 M 0.0 **** -1.04
13889 O 19.410931121227122 23.490679521407728 36.372074546041816 O 0.0 **** 0.0
13890 H 20.231054283566877 23.65377662489533 35.90621324009944 H 0.0 **** 0.52
13891 H 18.975258525570922 24.342631068182925 36.39646821257878 H 0.0 **** 0.52
13892 M 19.46014572150935 23.620618199403964 36.31556179681948 M 0.0 **** -1.04
13893 O 47.34495627859366 44.06977031902709 2.7900902801480947 O 0.0 **** 0.0
13894 H 47.395343025226545 43.11869510936675 2.694459472245846 H 0.0 **** 0.52
13895 H 48.054065632322484 44.288064497171476 3.39485538672694 H 0.0 **** 0.52
13896 M 47.44218135836197 43.97596554747755 2.8552659882271207 M 0.0 **** -1.04
13897 O 4.053166553189024 8.847713665740562 32.52530081421632 O 0.0 **** 0.0
13898 H 4.444137592658209 8.611335492688534 31.684172447742917 H 0.0 **** 0.52
13899 H 3.7094339359064596 9.7308292414426 32.39045721106882 H 0.0 **** 0.52
13900 M 4.059213234541528 8.930503836900511 32.40036360780483 M 0.0 **** -1.04
13901 O 1.2375280919840606 12.793634413117177 22.575206145671203 O 0.0 **** 0.0
13902 H 0.963013834949777 12.841247820942415 21.659452626949545 H 0.0 **** 0.52
13903 H 2.070592210039486 12.322798878034583 22.551850382079607 H 0.0 **** 0.52
13904 M 1.3090287709227582 12.739456804189961 22.45498795092834 M 0.0 **** -1.04
13905 O 24.695731125207974 6.138084892050161 30.598434802798348 O 0.0 **** 0.0
13906 H 24.781870997385607 5.1953001406483805 30.457134432509783 H 0.0 **** 0.52
13907 H 23.791849211158887 6.335899396343919 30.353292622639273 H 0.0 **** 0.52
13908 M 24.591050146876324 6.0427199843859 30.54896547930647 M 0.0 **** -1.04
13909 O 46.463536582254356 11.224218028545053 35.72565476587709 O 0.0 **** 0.0
13910 H 45.9189830498304 11.616346705690084 36.40824096702539 H 0.0 **** 0.52
13911 H 47.110429594613315 10.705085738042541 36.20342109786979 H 0.0 **** 0.52
13912 M 46.476637153397895 11.20795964458884 35.87419443642958 M 0.0 **** -1.04
13913 O 49.307632802856006 12.390466090280583 14.19967684333183 O 0.0 **** 0.0
13914 H 49.614624545902856 11.487722539688036 14.115780510876661 H 0.0 **** 0.52
13915 H 50.09842591233032 12.922222733957 14.109620444015953 H 0.0 **** 0.52
13916 M 49.44816294483609 12.342975499910452 14.177408376156258 M 0.0 **** -1.04
13917 O 14.627136089398235 27.09332642796302 36.08240893359921 O 0.0 **** 0.0
13918 H 13.840157048660657 26.61416961720145 36.34183623997817 H 0.0 **** 0.52
13919 H 14.537517826101436 27.207692975665374 35.136302279709284 H 0.0 **** 0.52
13920 M 14.514920745309183 27.046628584121127 35.994506028229246 M 0.0 **** -1.04
13921 O 43.909993783428725 16.426901319333304 30.66364892411386 O 0.0 **** 0.0
13922 H 43.37482362306137 15.67371949828302 30.91372780236059 H 0.0 **** 0.52
13923 H 44.55053391316932 16.511268318524998 31.3699196635309 H 0.0 **** 0.52
13924 M 43.923482580722144 16.34128455694318 30.78607424092127 M 0.0 **** -1.04
13925 O 41.10953113045632 34.41298141699511 24.929110513039504 O 0.0 **** 0.0
13926 H 41.27922275480434 33.75188615333588 24.25800155149239 H 0.0 **** 0.52
13927 H 41.30604941040195 35.24599576064049 24.500511700392256 H 0.0 **** 0.52
13928 M 41.15640988316161 34.4349895436065 24.78833352907244 M 0.0 **** -1.04
13929 O 27.08355690184329 7.875594376721935 4.462321222122302 O 0.0 **** 0.0
13930 H 26.72766241376111 8.755546509762667 4.338826244963553 H 0.0 **** 0.52
13931 H 26.31295639774076 7.317672454953502 4.567802539571342 H 0.0 **** 0.52
13932 M 26.939351429696444 7.916817856889466 4.460015433802904 M 0.0 **** -1.04
13933 O 3.228102474974463 32.11979384701944 35.878713753952226 O 0.0 **** 0.0
13934 H 2.9901527653098157 31.87130094276781 34.9854841381217 H 0.0 **** 0.52
13935 H 2.7130986622239632 31.53587790992094 36.43552763711742 H 0.0 **** 0.52
13936 M 3.1317152767349725 32.01323519040269 35.83564882789179 M 0.0 **** -1.04
13937 O 29.316571468011617 18.684587571030626 5.615375410065539 O 0.0 **** 0.0
13938 H 29.873321624071117 17.919293435512373 5.4719057973679455 H 0.0 **** 0.52
13939 H 28.459766816656906 18.424922056643243 5.276716750487253 H 0.0 **** 0.52
13940 M 29.278160092143672 18.553379734372076 5.553657148486778 M 0.0 **** -1.04
13941 O 19.05727203277172 8.155879227075143 8.671677307316482 O 0.0 **** 0.0
13942 H 18.960116194030718 8.71516878022782 9.442381897332114 H 0.0 **** 0.52
13943 H 18.93768547420983 7.266266993731837 9.004119504840522 H 0.0 **** 0.52
13944 M 19.029526615009388 8.113593078864263 8.812894163522337 M 0.0 **** -1.04
13945 O 35.68068621539267 26.95213165203174 0.9018954854721616 O 0.0 **** 0.0
13946 H 36.59799163662266 27.21836962650824 0.8394597835968203 H 0.0 **** 0.52
13947 H 35.46406738823507 26.63042603221117 0.026789621430753363 H 0.0 **** 0.52
13948 M 35.770383136743035 26.94503073595163 0.7818784022043473 M 0.0 **** -1.04
13949 O 46.16434936919468 40.54631143960629 45.931788468887625 O 0.0 **** 0.0
13950 H 46.5705189123944 40.64118660064908 45.07024787595478 H 0.0 **** 0.52
13951 H 46.372885401183375 41.362330130202935 46.38660082814736 H 0.0 **** 0.52
13952 M 46.24303932308365 40.66291736777919 45.87972287822652 M 0.0 **** -1.04
13953 O 13.080493472041885 49.082405577606664 14.256986072510898 O 0.0 **** 0.0
13954 H 12.868903631568184 48.53913978186381 15.016143100789733 H 0.0 **** 0.52
13955 H 12.641509303217797 49.91558139537976 14.428272837860447 H 0.0 **** 0.52
13956 M 12.997212846332461 49.11951750762755 14.376094514636435 M 0.0 **** -1.04
13957 O 11.733395314703209 20.91945530597171 14.286879715898946 O 0.0 **** 0.0
13958 H 12.596114841049527 20.73361568456986 13.916193108868814 H 0.0 **** 0.52
13959 H 11.136146925341095 20.871995626644413 13.5403736438245 H 0.0 **** 0.52
13960 M 11.767378897219054 20.889589136687007 14.143864741240224 M 0.0 **** -1.04
13961 O 20.26490017837565 48.71661928982691 14.365141439076481 O 0.0 **** 0.0
13962 H 19.79409550064897 48.996933895847214 15.149995642250992 H 0.0 **** 0.52
13963 H 21.174146151064395 48.62598240198808 14.650247828332343 H 0.0 **** 0.52
13964 M 20.321026399692833 48.74090046977957 14.50210978202393 M 0.0 **** -1.04
13965 O 45.46491308102808 11.272856833799622 15.821158174747877 O 0.0 **** 0.0
13966 H 45.52476224235646 12.14193433232834 15.424483127479462 H 0.0 **** 0.52
13967 H 45.88306759407877 10.690329667019348 15.18709387446569 H 0.0 **** 0.52
13968 M 45.52610375304406 11.309539060333393 15.689210685462337 M 0.0 **** -1.04
13969 O 29.432273344642304 10.184513977775733 28.06196565027756 O 0.0 **** 0.0
13970 H 28.722766628296338 10.810282104440857 27.916214671629657 H 0.0 **** 0.52
13971 H 29.448525610773526 9.65080847357989 27.2675326984399 H 0.0 **** 0.52
13972 M 29.343527871383376 10.196299589011481 27.94161034049089 M 0.0 **** -1.04
13973 O 42.40628674870704 14.610548431170415 15.707836370906563 O 0.0 **** 0.0
13974 H 41.768044332273966 15.157825426671899 16.16540035376373 H 0.0 **** 0.52
13975 H 43.21295878896817 15.125776630782056 15.714746474195863 H 0.0 **** 0.52
13976 M 42.427848382904976 14.746562701403263 15.767295394668764 M 0.0 **** -1.04
13977 O 15.891532838537714 48.28684387580083 42.883269002120954 O 0.0 **** 0.0
13978 H 15.15675665602295 48.45782118133309 43.47242003433539 H 0.0 **** 0.52
13979 H 15.964543852693353 47.33268598227669 42.86131962270066 H 0.0 **** 0.52
13980 M 15.806818716763843 48.18658629728749 42.955878201481035 M 0.0 **** -1.04
13981 O 6.302409381861808 30.299154728421218 13.761151582890607 O 0.0 **** 0.0
13982 H 6.026860517920675 31.026151401372488 13.202781228101239 H 0.0 **** 0.52
13983 H 7.104897994610554 30.609489709695378 14.18059686936218 H 0.0 **** 0.52
13984 M 6.369864378709148 30.431945765318336 13.743367772104056 M 0.0 **** -1.04
13985 O 26.860440107599125 45.81742258980111 23.02981842579186 O 0.0 **** 0.0
13986 H 26.542612978751627 45.37404931776477 22.243285026949437 H 0.0 **** 0.52
13987 H 27.009783866433352 45.11190396033596 23.659238012753644 H 0.0 **** 0.52
13988 M 26.838871807876266 45.67034971944884 23.0097054081064 M 0.0 **** -1.04
13989 O 15.240534334334876 48.56156175826045 31.980210678744793 O 0.0 **** 0.0
13990 H 15.53270119155728 49.16120864398622 31.29370541691388 H 0.0 **** 0.52
13991 H 14.607660924864646 49.06880201479692 32.48854999408909 H 0.0 **** 0.52
13992 M 15.196919426632606 48.70325696413691 31.957403454740994 M 0.0 **** -1.04
13993 O 15.970475842771052 33.07836466669224 27.210767032518106 O 0.0 **** 0.0
13994 H 15.266123070187746 33.12018883293556 27.85757918523238 H 0.0 **** 0.52
13995 H 15.844755376414 32.23639304522625 26.77315170846451 H 0.0 **** 0.52
13996 M 15.864216440609326 32.975935068402755 27.237547063744813 M 0.0 **** -1.04
13997 O 21.177864393338133 0.6535391642435471 37.31502365354358 O 0.0 **** 0.0
13998 H 21.946703056114014 0.09732092115523017 37.440472776911726 H 0.0 **** 0.52
13999 H 21.307931591473487 1.3829970395255415 37.920996426743315 H 0.0 **** 0.52
14000 M 21.29293616546176 0.6757157408238683 37.408654753961684 M 0.0 **** -1.04
14001 O 36.721019131902885 13.349850810458769 28.179253629357195 O 0.0 **** 0.0
14002 H 36.08313785604384 12.98626558659712 28.7933722968507 H 0.0 **** 0.52
14003 H 36.20940675576175 13.93412910745392 27.619701006216385 H 0.0 **** 0.52
14004 M 36.573869560584725 13.378101848662368 28.186238980694174 M 0.0 **** -1.04
14005 O 33.54067365966374 11.168148722755646 17.18893125365589 O 0.0 **** 0.0
14006 H 33.96677018050519 10.419949899364696 17.60710519373126 H 0.0 **** 0.52
14007 H 34.25658111972703 11.654106480232272 16.779602410570103 H 0.0 **** 0.52
14008 M 33.68686403545942 11.134578283148528 17.190063293541275 M 0.0 **** -1.04
14009 O 29.4976581517762 6.719269828406467 15.811194353818966 O 0.0 **** 0.0
14010 H 30.084893429020966 7.257738212526278 15.28068944640259 H 0.0 **** 0.52
14011 H 30.055039413541436 6.018852457178435 16.150267209058388 H 0.0 **** 0.52
14012 M 29.64418314882705 6.6985385760189455 15.786689420709541 M 0.0 **** -1.04
14013 O 45.190508114958035 48.753912941052405 36.259509830519846 O 0.0 **** 0.0
14014 H 45.612319262244284 49.574673833202446 36.00523453876301 H 0.0 **** 0.52
14015 H 44.88862865080094 48.37361342571448 35.43460404522685 H 0.0 **** 0.52
14016 M 45.20586064895778 48.81029804458224 36.1213617662782 M 0.0 **** -1.04
14017 O 32.402830531118035 4.111753740143502 49.5425276347544 O 0.0 **** 0.0
14018 H 31.676493567014276 4.539181001672647 49.08869003840084 H 0.0 **** 0.52
14019 H 32.61825645489898 4.704729119805699 50.26238821488874 H 0.0 **** 0.52
14020 M 32.33742734303629 4.242378073923739 49.57658212563605 M 0.0 **** -1.04
14021 O 4.764617124358538 29.131135646955762 42.56250547647699 O 0.0 **** 0.0
14022 H 4.774464364232594 28.207941750109505 42.3098318115917 H 0.0 **** 0.52
14023 H 5.596731974109016 29.264619328203818 43.01637328148754 H 0.0 **** 0.52
14024 M 4.872398903414518 29.030043261577365 42.588261611436074 M 0.0 **** -1.04
14025 O 46.49995648189221 29.631769740693006 20.952987951267914 O 0.0 **** 0.0
14026 H 46.597962277863346 30.422475780873373 20.42250923011332 H 0.0 **** 0.52
14027 H 46.8240406756259 29.88161316944327 21.818306460254504 H 0.0 **** 0.52
14028 M 46.55398979192878 29.764973402228378 20.99585214428552 M 0.0 **** -1.04
14029 O 30.36127898999112 37.80625674483679 46.14436084938953 O 0.0 **** 0.0
14030 H 30.476507142082266 38.120877421610004 45.247719394904436 H 0.0 **** 0.52
14031 H 29.423356672518818 37.629949919844236 46.21816231447756 H 0.0 **** 0.52
14032 M 30.255963670347516 37.82396317023907 46.039027141195845 M 0.0 **** -1.04
14033 O 47.04552001591124 3.4776537321242813 10.484151019463987 O 0.0 **** 0.0
14034 H 47.79188856037893 3.725173853290528 11.029949357604082 H 0.0 **** 0.52
14035 H 46.55799155265543 2.848145815142871 11.015435771191939 H 0.0 **** 0.52
14036 M 47.0786544160136 3.4287553906837758 10.622030813085864 M 0.0 **** -1.04
14037 O 23.6810484430383 35.48695620821689 38.630053259339206 O 0.0 **** 0.0
14038 H 23.339546729013556 35.65902161835682 39.5075485754072 H 0.0 **** 0.52
14039 H 22.949045057646355 35.6823793156293 38.045065508050556 H 0.0 **** 0.52
14040 M 23.54362601002214 35.533999859063314 38.667497408147156 M 0.0 **** -1.04
14041 O 25.360794797716864 24.026801903532967 48.36750423084438 O 0.0 **** 0.0
14042 H 24.97857606233392 23.532193267168 49.092416972710836 H 0.0 **** 0.52
14043 H 24.664150878806144 24.069531294323568 47.71245404559728 H 0.0 **** 0.52
14044 M 25.222687273817566 23.968955639440587 48.37644723380512 M 0.0 **** -1.04
14045 O 30.880666015840717 20.36654332708684 13.57571219737072 O 0.0 **** 0.0
14046 H 29.96005478208346 20.110056298947338 13.521683564432017 H 0.0 **** 0.52
14047 H 30.86543742319718 21.323150363884853 13.545715298235308 H 0.0 **** 0.52
14048 M 30.760866285188527 20.456167936297817 13.564956051571833 M 0.0 **** -1.04
14049 O 27.457569270387104 32.476615186042004 10.003747207763395 O 0.0 **** 0.0
14050 H 27.39958195977453 32.811416584196756 9.10888720025392 H 0.0 **** 0.52
14051 H 26.979990463797716 31.647376812405167 9.981154055989084 H 0.0 **** 0.52
14052 M 27.389010183130704 32.4133211798105 9.886301710809516 M 0.0 **** -1.04
14053 O 47.89685140578868 30.97095206748134 3.4327663853482786 O 0.0 **** 0.0
14054 H 48.602462470274595 31.310690270772024 3.983148530944754 H 0.0 **** 0.52
14055 H 47.799767212047634 31.622096473065817 2.737917060482661 H 0.0 **** 0.52
14056 M 47.97475050358027 31.09779746572715 3.4142732498344848 M 0.0 **** -1.04
14057 O 45.95959145377606 40.091054191705986 29.358612823779023 O 0.0 **** 0.0
14058 H 45.41960153730899 40.468548063043286 30.052973658553086 H 0.0 **** 0.52
14059 H 45.33515326364443 39.84384912149439 28.676560440323563 H 0.0 **** 0.52
14060 M 45.810530031076325 40.107732711401674 29.360188508868177 M 0.0 **** -1.04
14061 O 35.06822670288034 46.07503680000789 2.024029300177386 O 0.0 **** 0.0
14062 H 34.96624000014673 45.12651843194018 1.9456748218010973 H 0.0 **** 0.52
14063 H 35.851247269368784 46.275391141247496 1.5112260494725174 H 0.0 **** 0.52
14064 M 35.15540777072393 45.97926236208454 1.9483531634028661 M 0.0 **** -1.04
14065 O 20.12579447174369 4.317827864601888 39.132270661318536 O 0.0 **** 0.0
14066 H 19.69566208565506 3.8950453602623294 39.87555289005383 H 0.0 **** 0.52
14067 H 20.13009203621982 5.248699018963989 39.355182622248805 H 0.0 **** 0.52
14068 M 20.07128282861636 4.382869303690021 39.25595589583309 M 0.0 **** -1.04
14069 O 16.713136821397317 21.880232844519075 9.691838122702261 O 0.0 **** 0.0
14070 H 15.957985912934731 21.37071514350974 9.397954882221837 H 0.0 **** 0.52
14071 H 17.280280874397 21.934192017677415 8.922641194278125 H 0.0 **** 0.52
14072 M 16.689069270798445 21.82191533527654 9.555750604211706 M 0.0 **** -1.04
14073 O 43.73243789871906 46.97229761891772 45.49916355539805 O 0.0 **** 0.0
14074 H 43.083813763125775 47.24087886328183 46.14983926474009 H 0.0 **** 0.52
14075 H 44.26916285284638 46.32056815189854 45.950168182352165 H 0.0 **** 0.52
14076 M 43.71811318779257 46.92324979422 45.640192013697416 M 0.0 **** -1.04
14077 O 12.96697479658176 21.965459451029005 5.155484820766538 O 0.0 **** 0.0
14078 H 12.120486807662742 21.543574658126072 5.008178911019589 H 0.0 **** 0.52
14079 H 12.94216871127834 22.7506770401269 4.608633614388154 H 0.0 **** 0.52
14080 M 12.855438392300155 22.01197057174144 5.066623973707724 M 0.0 **** -1.04
14081 O 6.37689915081252 1.8879597241800274 18.350934747611582 O 0.0 **** 0.0
14082 H 6.6608173571356275 1.1780748431972303 18.926853149443264 H 0.0 **** 0.52
14083 H 6.116599417044803 1.450020042087501 17.54057492803622 H 0.0 **** 0.52
14084 M 6.379922638750941 1.741023664759849 18.320923148440908 M 0.0 **** -1.04
14085 O 25.349028198926842 4.020174071431768 25.96069157653829 O 0.0 **** 0.0
14086 H 25.694458993240563 3.5114768057904158 26.694266907116987 H 0.0 **** 0.52
14087 H 25.578310984803526 4.926131406265206 26.16781180213916 H 0.0 **** 0.52
14088 M 25.422597952627232 4.071027893987214 26.081112284296378 M 0.0 **** -1.04
14089 O 12.836339387308904 9.138663510326033 21.215011374510606 O 0.0 **** 0.0
14090 H 13.63312358612 8.768580872697541 21.595015043350617 H 0.0 **** 0.52
14091 H 12.426185039182087 9.61652189477843 21.935881246686712 H 0.0 **** 0.52
14092 M 12.885833082187169 9.152460113775106 21.355936579089363 M 0.0 **** -1.04
14093 O 38.84086150002905 12.81200233677882 34.729242203660256 O 0.0 **** 0.0
14094 H 39.24525805955767 12.631718300540479 33.88060227736783 H 0.0 **** 0.52
14095 H 39.29078597235286 12.226831873657476 35.33864482188493 H 0.0 **** 0.52
14096 M 38.950224735643864 12.714014444895243 34.698617124703865 M 0.0 **** -1.04
14097 O 23.583832250719578 34.925727520642425 27.83997926422903 O 0.0 **** 0.0
14098 H 23.46917127770138 35.77411199457249 28.26814590247524 H 0.0 **** 0.52
14099 H 23.228928203585202 34.29223548122556 28.463646299058695 H 0.0 **** 0.52
14100 M 23.523722322325646 34.953236520534006 27.974627879800977 M 0.0 **** -1.04
14101 O 46.18221897571283 15.557010566160713 5.9871480954755185 O 0.0 **** 0.0
14102 H 45.51512704597769 15.865301601803488 5.37381738341108 H 0.0 **** 0.52
14103 H 45.76986689629206 14.821788465427574 6.440626474184825 H 0.0 **** 0.52
14104 M 46.044036871864506 15.502358268218636 5.966684953495346 M 0.0 **** -1.04
14105 O 32.53006758055453 1.724429811938424 11.207823568363043 O 0.0 **** 0.0
14106 H 32.86707709960709 0.8302071404820552 11.26275706884825 H 0.0 **** 0.52
14107 H 31.93708991270099 1.8037438674520159 11.955028956514866 H 0.0 **** 0.52
14108 M 32.497300106989144 1.6201109889635563 11.310507307943773 M 0.0 **** -1.04
14109 O 11.558085717805831 1.1968124303183032 37.233236608125075 O 0.0 **** 0.0
14110 H 11.354696003326744 1.9854360235662725 36.730312723245795 H 0.0 **** 0.52
14111 H 10.722736631633094 0.9384360753748595 37.622674597275875 H 0.0 **** 0.52
14112 M 11.425113890923365 1.2646907259450941 37.21870964772898 M 0.0 **** -1.04
14113 O 4.816504172264295 42.345345508949414 16.040640142671037 O 0.0 **** 0.0
14114 H 5.7553272577683785 42.52042096212315 15.975922836772952 H 0.0 **** 0.52
14115 H 4.407863660914437 43.02762508397828 15.507971130701804 H 0.0 **** 0.52
14116 M 4.884374117969976 42.45509796721739 15.964166887090755 M 0.0 **** -1.04
14117 O 1.6992797633173002 46.438332365971945 24.679761767673696 O 0.0 **** 0.0
14118 H 2.5138358061580073 46.1459504060353 25.0887118154613 H 0.0 **** 0.52
14119 H 1.828956325421729 46.27791647004666 23.74505339376692 H 0.0 **** 0.52
14120 M 1.820153374132694 46.380367664585926 24.612457984639736 M 0.0 **** -1.04
14121 O 16.328963210613207 34.395166850009076 36.44089744561427 O 0.0 **** 0.0
14122 H 15.90103491055713 34.95465407590689 35.79276216550784 H 0.0 **** 0.52
14123 H 17.264956944696294 34.539507569851715 36.30193948342837 H 0.0 **** 0.52
14124 M 16.394001887170592 34.48526607881541 36.340139729080114 M 0.0 **** -1.04
14125 O 2.6008944162280576 41.99009535958359 8.713789904050115 O 0.0 **** 0.0
14126 H 2.5869471758137723 41.429970409060104 7.937713656718982 H 0.0 **** 0.52
14127 H 1.7703321331749446 41.8104404889862 9.154380638825522 H 0.0 **** 0.52
14128 M 2.4927866284253626 41.895394155993465 8.67084414281594 M 0.0 **** -1.04
14129 O 27.875951511090054 4.964677635666057 29.20573543832141 O 0.0 **** 0.0
14130 H 27.12639246642882 4.376873575377239 29.29994931340566 H 0.0 **** 0.52
14131 H 28.038456492040073 5.290167916167704 30.09110329148204 H 0.0 **** 0.52
14132 M 27.800801016898024 4.931098271991587 29.3311347830481 M 0.0 **** -1.04
14133 O 47.58110448960933 19.4837998384354 18.79104086311303 O 0.0 **** 0.0
14134 H 46.660675058784555 19.550915801199437 19.04507540217638 H 0.0 **** 0.52
14135 H 47.55940670551868 19.132092693437833 17.901063628243215 H 0.0 **** 0.52
14136 M 47.46050068894717 19.447368221563064 18.709632363459168 M 0.0 **** -1.04
14137 O 21.599175389946616 15.61471898634244 13.62757155838705 O 0.0 **** 0.0
14138 H 21.060555345211316 15.37688660537537 14.382259639343438 H 0.0 **** 0.52
14139 H 21.071838019722907 16.253743132717805 13.14820631904596 H 0.0 **** 0.52
14140 M 21.462720060143994 15.666076645546124 13.662816521623936 M 0.0 **** -1.04
14141 O 11.036821839779675 42.642538914662104 28.44907159566499 O 0.0 **** 0.0
14142 H 10.712858325874326 41.74374591822733 28.39036419282776 H 0.0 **** 0.52
14143 H 11.30621038513899 42.74137902361825 29.36224691446676 H 0.0 **** 0.52
14144 M 11.029835875277819 42.540135139868084 28.558453967155614 M 0.0 **** -1.04
14145 O 18.17395159326895 14.39387243567017 11.68430719048111 O 0.0 **** 0.0
14146 H 17.495973350271782 13.745577096865112 11.874796664372033 H 0.0 **** 0.52
14147 H 18.072447028399107 14.580102630207424 10.75090267677961 H 0.0 **** 0.52
14148 M 18.07416781655644 14.33472240467288 11.589204991074306 M 0.0 **** -1.04
14149 O 47.69578656617998 41.389016304938565 0.7701991632912524 O 0.0 **** 0.0
14150 H 46.81320224694693 41.213565512349206 0.4438704506869371 H 0.0 **** 0.52
14151 H 48.05737513075021 42.02584013447876 0.1538070784393284 H 0.0 **** 0.52
14152 M 47.629092278948185 41.44807761877374 0.6495185671056447 M 0.0 **** -1.04
14153 O 35.00437738450613 31.302477139083454 8.628759399919247 O 0.0 **** 0.0
14154 H 34.30957393719053 30.682278595298325 8.40777990665196 H 0.0 **** 0.52
14155 H 34.66099288860154 31.791011530008163 9.37685612078873 H 0.0 **** 0.52
14156 M 34.87147614089454 31.285622565375114 8.696236714015107 M 0.0 **** -1.04
14157 O 45.96991603631805 3.89633554026449 3.609245003710777 O 0.0 **** 0.0
14158 H 46.879851094028005 4.023013913110265 3.340547109752368 H 0.0 **** 0.52
14159 H 45.88183382223877 4.4136530303963415 4.409778524172431 H 0.0 **** 0.52
14160 M 46.0751238303543 3.9787753351769815 3.6773264523059317 M 0.0 **** -1.04
14161 O 49.17635698555726 42.3916440142967 19.397263240894407 O 0.0 **** 0.0
14162 H 48.322731581281936 42.036818268077184 19.148966923505704 H 0.0 **** 0.52
14163 H 49.020578351265044 43.32810320310705 19.519760713464066 H 0.0 **** 0.52
14164 M 49.04714049837495 42.46610049564052 19.381159067144534 M 0.0 **** -1.04
14165 O 35.88045529887865 9.725216008939732 5.378062055137417 O 0.0 **** 0.0
14166 H 35.27785510025454 10.127993473147889 4.752864352408191 H 0.0 **** 0.52
14167 H 36.55217291829411 9.314669969785996 4.8335661125449345 H 0.0 **** 0.52
14168 M 35.889303231469306 9.724221125931464 5.228326218442712 M 0.0 **** -1.04
14169 O 24.135553187221216 15.368961917993284 6.936117012349257 O 0.0 **** 0.0
14170 H 23.72343540658436 14.511583254938609 7.042364052907523 H 0.0 **** 0.52
14171 H 24.94351966384372 15.311729738045031 7.44615991489222 H 0.0 **** 0.52
14172 M 24.186227577592646 15.251880381579861 7.0150096990670505 M 0.0 **** -1.04
14173 O 39.218590688020164 37.14368568668018 15.188400954348992 O 0.0 **** 0.0
14174 H 38.895484995664205 36.71157715878735 15.979041279658475 H 0.0 **** 0.52
14175 H 38.43360270080706 37.30387491673982 14.664606392849876 H 0.0 **** 0.52
14176 M 39.076741609392315 37.10887690407731 15.222560469672175 M 0.0 **** -1.04
14177 O 26.87471656805515 17.182790575218306 21.44443484665963 O 0.0 **** 0.0
14178 H 27.721435643103334 16.740471244415026 21.504846714824296 H 0.0 **** 0.52
14179 H 27.059994248865998 17.99164422717479 20.967301026307446 H 0.0 **** 0.52
14180 M 27.00682486048882 17.22971175981158 21.39108967072384 M 0.0 **** -1.04
14181 O 30.848483632388053 39.51212923505199 32.61645798426449 O 0.0 **** 0.0
14182 H 29.94252940388119 39.302721601343556 32.84366719159322 H 0.0 **** 0.52
14183 H 30.816089917220424 40.41909249854633 32.31216098608653 H 0.0 **** 0.52
14184 M 30.728363870559285 39.60142532828641 32.60658984242876 M 0.0 **** -1.04
14185 O 23.17896281359484 2.487209210339365 17.182204064402413 O 0.0 **** 0.0
14186 H 23.864434031568496 2.818434077984852 16.601990962782224 H 0.0 **** 0.52
14187 H 22.451708141050837 2.2743060508135144 16.597395777456484 H 0.0 **** 0.52
14188 M 23.173613766029362 2.502355680461706 17.033067047864023 M 0.0 **** -1.04
14189 O 26.44913884304431 38.63752694441383 9.426703196899753 O 0.0 **** 0.0
14190 H 26.540358143926625 39.2983655062786 8.740262974896316 H 0.0 **** 0.52
14191 H 27.073263118949384 38.9046804685262 10.101482691698898 H 0.0 **** 0.52
14192 M 26.540711906587305 38.756321847256544 9.425210640387656 M 0.0 **** -1.04
14193 O 19.085496393611965 31.211828801669004 24.498945324671425 O 0.0 **** 0.0
14194 H 19.462242412796538 30.333446649761424 24.551239275209152 H 0.0 **** 0.52
14195 H 18.68026022244283 31.247960690647794 23.63251130626953 H 0.0 **** 0.52
14196 M 19.081849647402976 31.10401054906437 24.39472525795993 M 0.0 **** -1.04
14197 O 29.134122307330173 25.351905152777075 44.062818003960004 O 0.0 **** 0.0
14198 H 28.747157838930345 25.556041814389292 44.91417969408858 H 0.0 **** 0.52
14199 H 28.50460578481196 24.761866882285368 43.64834004529219 H 0.0 **** 0.52
14200 M 29.004000052885946 25.302504444709584 44.11874442860682 M 0.0 **** -1.04
14201 O 36.31822704447424 39.78924485057604 9.01062903819954 O 0.0 **** 0.0
14202 H 36.98246507951899 40.138309207517636 8.416347482553014 H 0.0 **** 0.52
14203 H 36.65843687650542 38.93464067638184 9.275464660229453 H 0.0 **** 0.52
14204 M 36.44680934885699 39.72452990687968 8.96845639399745 M 0.0 **** -1.04
14205 O 17.30021342797116 22.0230933128288 19.10799336253158 O 0.0 **** 0.0
14206 H 17.846581649278278 22.612969067300583 19.627375319933247 H 0.0 **** 0.52
14207 H 16.873294820990935 21.460327404872018 19.75395230179862 H 0.0 **** 0.52
14208 M 17.315504424181157 22.026563757099392 19.257172073547867 M 0.0 **** -1.04
14209 O 11.321342261194136 18.510707246514485 15.401154239720363 O 0.0 **** 0.0
14210 H 11.401991336617375 19.18518539216944 14.726763513238776 H 0.0 **** 0.52
14211 H 11.514804372981237 18.966218126628963 16.220489810597975 H 0.0 **** 0.52
14212 M 11.35643162651961 18.65536052818133 15.419708899379632 M 0.0 **** -1.04
14213 O 15.106196105519079 14.703275083416159 45.3928675502127 O 0.0 **** 0.0
14214 H 14.74997104174185 14.155326383543557 46.092212231646315 H 0.0 **** 0.52
14215 H 15.158130666878986 15.578612140779791 45.77668588562669 H 0.0 **** 0.52
14216 M 15.067243596501667 14.745184451182897 45.53152610783044 M 0.0 **** -1.04
14217 O 28.591994691453593 17.90999716541606 30.665033341906003 O 0.0 **** 0.0
14218 H 29.100102401278328 18.71805612900126 30.73641851422749 H 0.0 **** 0.52
14219 H 28.938738045854 17.34656921296574 31.3568047789095 H 0.0 **** 0.52
14220 M 28.701426326017412 17.941313616138952 30.7627267374853 M 0.0 **** -1.04
14221 O 38.13132442262491 1.0593703352381445 20.985290980986154 O 0.0 **** 0.0
14222 H 38.67235480631694 0.4566853436263586 20.475109275665012 H 0.0 **** 0.52
14223 H 38.75625613336712 1.5483833863841376 21.520599010320794 H 0.0 **** 0.52
14224 M 38.280581658145 1.0448192475836122 20.988507329218955 M 0.0 **** -1.04
14225 O 11.437226809977233 22.25638664196451 29.414490760185796 O 0.0 **** 0.0
14226 H 11.2637998251544 21.47846563614263 28.884405893660535 H 0.0 **** 0.52
14227 H 11.595069077195063 22.95168210995172 28.775837174471484 H 0.0 **** 0.52
14228 M 11.435232066185186 22.245809972512717 29.264877653438745 M 0.0 **** -1.04
14229 O 21.379209953006026 21.683430091060988 41.699520676228694 O 0.0 **** 0.0
14230 H 20.819361242416377 22.310942338117755 41.242327470693 H 0.0 **** 0.52
14231 H 21.137619529306747 21.773436989154163 42.62134615241741 H 0.0 **** 0.52
14232 M 21.276615195912825 21.775281447944973 41.75899954264009 M 0.0 **** -1.04
14233 O 43.43627273772882 27.98594227365113 4.896297257518116 O 0.0 **** 0.0
14234 H 44.02239061933033 28.063448266280766 4.143511103714244 H 0.0 **** 0.52
14235 H 43.57361873080894 28.79347197279383 5.391533991477448 H 0.0 **** 0.52
14236 M 43.52888508327052 28.09923760202129 4.863327573188844 M 0.0 **** -1.04
14237 O 35.36139185677465 7.001425002358852 23.073829621010525 O 0.0 **** 0.0
14238 H 35.922372434305544 6.248542761518538 22.88755937965245 H 0.0 **** 0.52
14239 H 35.9455894746305 7.757144755973243 23.0119486427638 H 0.0 **** 0.52
14240 M 35.50798853072109 7.001788397303485 23.042063287920897 M 0.0 **** -1.04
14241 O 8.58803470986832 28.632260434829178 12.30623125607653 O 0.0 **** 0.0
14242 H 8.304434648928275 27.874866195556375 11.794221426418012 H 0.0 **** 0.52
14243 H 7.794498897801113 28.93363455416159 12.748616252402371 H 0.0 **** 0.52
14244 M 8.450146864364736 28.57388384065583 12.297318054849221 M 0.0 **** -1.04
14245 O 5.932123611209931 26.53229261744732 34.673873933900616 O 0.0 **** 0.0
14246 H 5.22300005706454 26.953668063699837 34.188265660320766 H 0.0 **** 0.52
14247 H 6.7309540892614095 26.82922585364869 34.238065822690494 H 0.0 **** 0.52
14248 M 5.943606955050584 26.624245670395293 34.55592055005006 M 0.0 **** -1.04
14249 O 8.761905156955768 24.62867858774601 40.15548386915511 O 0.0 **** 0.0
14250 H 8.497703170006929 24.48279333042842 41.06385719123378 H 0.0 **** 0.52
14251 H 8.256844956011664 25.393143438109124 39.87847016427543 H 0.0 **** 0.52
14252 M 8.663430450991967 24.707864758847215 40.236305176968635 M 0.0 **** -1.04
14253 O 41.64228207116072 32.124841929062775 43.395812442785704 O 0.0 **** 0.0
14254 H 42.354104761452035 32.647566436982004 43.764994300256035 H 0.0 **** 0.52
14255 H 40.874823973857296 32.69463360821363 43.4465515346091 H 0.0 **** 0.52
14256 M 41.63515972961308 32.26469706535193 43.44956730873685 M 0.0 **** -1.04
14257 O 18.079800876269417 42.30178449809056 39.825348378027314 O 0.0 **** 0.0
14258 H 17.50932119035319 42.45749032055533 39.07266303434287 H 0.0 **** 0.52
14259 H 18.213712129287533 41.354029846306396 39.832992632174104 H 0.0 **** 0.52
14260 M 18.02391431604796 42.200392322064744 39.72997384561766 M 0.0 **** -1.04
14261 O 25.332887999011945 23.997148134701554 20.16182448030593 O 0.0 **** 0.0
14262 H 24.7633037851363 24.158787950661907 20.91393807234254 H 0.0 **** 0.52
14263 H 24.788012699231373 24.197336060429198 19.400730421940512 H 0.0 **** 0.52
14264 M 25.19022327592313 24.043466549496145 20.160674312095377 M 0.0 **** -1.04
14265 O 20.69912315235778 18.004620437735582 4.820792717923627 O 0.0 **** 0.0
14266 H 21.359723548564528 17.357850110824728 4.572753742971317 H 0.0 **** 0.52
14267 H 20.20883053465693 17.587371573400354 5.5291312785740345 H 0.0 **** 0.52
14268 M 20.72092463752413 17.86841274578637 4.879716420246352 M 0.0 **** -1.04
14269 O 20.581943775630478 43.0888610894957 40.3976011360024 O 0.0 **** 0.0
14270 H 19.65341175098213 42.89188419712045 40.27407951402151 H 0.0 **** 0.52
14271 H 20.60640083450157 43.656913827733646 41.167631443772116 H 0.0 **** 0.52
14272 M 20.46621055548303 43.13636399616326 40.480362797600264 M 0.0 **** -1.04
14273 O 37.894525309182974 0.7423146365617868 36.8332088770253 O 0.0 **** 0.0
14274 H 37.817611235527956 -0.13999005440083323 37.19632327071952 H 0.0 **** 0.52
14275 H 37.05665977232862 1.1587974282075848 37.035084101088216 H 0.0 **** 0.52
14276 M 37.7774215240785 0.6826832363333253 36.905534374998126 M 0.0 **** -1.04
14277 O 16.78653588556415 22.625605911371455 36.95956862527377 O 0.0 **** 0.0
14278 H 16.072489283695305 23.19810868476175 36.67919787882259 H 0.0 **** 0.52
14279 H 17.558634203919667 22.96604676271268 36.50769111875094 H 0.0 **** 0.52
14280 M 16.793967345908953 22.74247443953098 36.86583185647965 M 0.0 **** -1.04
14281 O 44.06437157351645 22.532423628425747 8.988492366302673 O 0.0 **** 0.0
14282 H 44.39451497126437 23.2966507101999 9.460922486215201 H 0.0 **** 0.52
14283 H 43.57046236458437 22.89868531411237 8.254915100059891 H 0.0 **** 0.52
14284 M 44.04340777968926 22.677140078060948 8.955062351011652 M 0.0 **** -1.04
14285 O 7.932738358895655 46.17993072902699 2.889190101827481 O 0.0 **** 0.0
14286 H 7.178527196746451 46.003935638657026 3.451702376723574 H 0.0 **** 0.52
14287 H 8.682986532874011 46.16970956089245 3.4835399515403154 H 0.0 **** 0.52
14288 M 7.932231363785704 46.15609290268655 3.037283089836066 M 0.0 **** -1.04
14289 O 3.5649239543204483 29.2411113757562 28.548263435939756 O 0.0 **** 0.0
14290 H 2.6334465106924165 29.364441597376857 28.73093112672366 H 0.0 **** 0.52
14291 H 3.973506500769714 29.185004050254047 29.41205816747738 H 0.0 **** 0.52
14292 M 3.497987185664241 29.2497168778465 28.682223565995834 M 0.0 **** -1.04
14293 O 25.651817355934142 8.883497741378712 22.21006833561555 O 0.0 **** 0.0
14294 H 25.932737211968885 8.501071028082173 21.37876761934963 H 0.0 **** 0.52
14295 H 25.51297834096701 9.809908961064814 22.013305586510754 H 0.0 **** 0.52
14296 M 25.67000525607034 8.953134837075496 22.078463530686005 M 0.0 **** -1.04
14297 O 30.45165178329514 21.59424018964976 46.57254522397235 O 0.0 **** 0.0
14298 H 30.505863276778147 22.502577869840618 46.869552755792895 H 0.0 **** 0.52
14299 H 30.956763580051653 21.100074283531857 47.21821632235477 H 0.0 **** 0.52
14300 M 30.523251925871822 21.647259740212615 46.69322003651879 M 0.0 **** -1.04
14301 O 44.518594009300344 48.55585283292773 40.483675188146634 O 0.0 **** 0.0
14302 H 44.172369701162616 48.25709057254025 41.32456654829507 H 0.0 **** 0.52
14303 H 44.31128818304091 47.847968762567504 39.87363155593112 H 0.0 **** 0.52
14304 M 44.44773549553818 48.426989452124815 40.51322622321227 M 0.0 **** -1.04
14305 O 0.14852842024741636 48.46018110812232 11.72677504859604 O 0.0 **** 0.0
14306 H 0.3677405165891061 49.37354497456014 11.91100508543704 H 0.0 **** 0.52
14307 H 0.6086941759055126 48.26278012673514 10.91098687739889 H 0.0 **** 0.52
14308 M 0.2354974014537783 48.55183269195087 11.645927346472533 M 0.0 **** -1.04
14309 O 41.731200880936065 38.85189417286538 2.607314324028721 O 0.0 **** 0.0
14310 H 41.15281315984968 38.36550229748134 3.194783046528336 H 0.0 **** 0.52
14311 H 42.581092142392215 38.8453519524949 3.0476213297957315 H 0.0 **** 0.52
14312 M 41.765956195168485 38.78879287682671 2.7388824542915486 M 0.0 **** -1.04
14313 O 10.138815165753162 6.045676984655423 43.95647595467517 O 0.0 **** 0.0
14314 H 10.9002545578457 5.585543234156245 43.603323298179134 H 0.0 **** 0.52
14315 H 10.502423262710172 6.649761523152361 44.60385541494337 H 0.0 **** 0.52
14316 M 10.282835440682211 6.064104250872686 43.994140315005815 M 0.0 **** -1.04
14317 O 36.02429631845241 14.984324730536898 23.756875747329104 O 0.0 **** 0.0
14318 H 35.56045793397911 15.1780126943828 24.57147321115265 H 0.0 **** 0.52
14319 H 36.75212480599158 14.42243445122773 24.022907318996104 H 0.0 **** 0.52
14320 M 36.058089467850166 14.937190025682654 23.89520956494465 M 0.0 **** -1.04
14321 O 45.034747943805925 29.891142660382574 42.29665639250115 O 0.0 **** 0.0
14322 H 45.828669820661844 30.37313692628781 42.065142884939945 H 0.0 **** 0.52
14323 H 44.389122362088514 30.165100388120713 41.64524052485833 H 0.0 **** 0.52
14324 M 45.05373217814368 29.987913937042435 42.18363046067028 M 0.0 **** -1.04
14325 O 5.000719730266415 7.253971179819662 30.674846181771844 O 0.0 **** 0.0
14326 H 4.3083475106758495 7.349769665603839 30.020879654126187 H 0.0 **** 0.52
14327 H 4.992472506092927 6.323308584310855 30.898514675799195 H 0.0 **** 0.52
14328 M 4.911031613026646 7.147097632693037 30.619762818733935 M 0.0 **** -1.04
14329 O 18.80663156479921 25.410709645125014 44.92191342015488 O 0.0 **** 0.0
14330 H 18.71315641484311 24.93845035824472 44.09459042161338 H 0.0 **** 0.52
14331 H 18.243728108087552 24.93649760814646 45.533871026865846 H 0.0 **** 0.52
14332 M 18.722606587168137 25.28954939329255 44.89434328147213 M 0.0 **** -1.04
14333 O 25.595145028519582 12.489689261933016 41.49836026440415 O 0.0 **** 0.0
14334 H 25.95230609243424 13.158549836330018 40.914159186392745 H 0.0 **** 0.52
14335 H 24.840797083313646 12.136867487800457 41.026444151213965 H 0.0 **** 0.52
14336 M 25.54429996708612 12.530146332785824 41.363164035877475 M 0.0 **** -1.04
14337 O 47.087644559500404 8.80003390186009 32.221993954695805 O 0.0 **** 0.0
14338 H 47.843825888697324 9.273846616859387 32.56828924650138 H 0.0 **** 0.52
14339 H 47.189153828057215 8.847960755435928 31.27140101434483 H 0.0 **** 0.52
14340 M 47.1974396472517 8.866823042893444 32.144636528428464 M 0.0 **** -1.04
14341 O 19.053019075584505 46.21648776330177 30.49674362026125 O 0.0 **** 0.0
14342 H 19.314185528078333 46.44135809851699 31.389745611888447 H 0.0 **** 0.52
14343 H 19.8027196088275 45.73995281429629 30.140243073796494 H 0.0 **** 0.52
14344 M 19.182422563601662 46.18427138961304 30.56542200481815 M 0.0 **** -1.04
14345 O 22.983235338852197 36.55387919521286 47.74044074406776 O 0.0 **** 0.0
14346 H 22.26936280843424 37.13067055967865 47.46854810285326 H 0.0 **** 0.52
14347 H 22.78417384376032 36.33878160512312 48.651668718639776 H 0.0 **** 0.52
14348 M 22.866368792273494 36.60018018071838 47.822283443839886 M 0.0 **** -1.04
14349 O 17.525910975522464 26.47814666284654 24.489672583897956 O 0.0 **** 0.0
14350 H 17.437446887645194 26.216661220490995 23.5731414635826 H 0.0 **** 0.52
14351 H 16.85505640033813 27.14960141849426 24.613496361201314 H 0.0 **** 0.52
14352 M 17.42870849564423 26.53062731644032 24.388195845687278 M 0.0 **** -1.04
14353 O 32.59281522962516 5.731017343342228 13.236123197944726 O 0.0 **** 0.0
14354 H 32.62123108146555 5.090237491770944 13.946631750340297 H 0.0 **** 0.52
14355 H 33.0159933640455 5.290883931457601 12.498944356961022 H 0.0 **** 0.52
14356 M 32.65062487883675 5.5926467705624825 13.232708634040709 M 0.0 **** -1.04
14357 O 7.995022066818173 12.964444281020334 37.459964199691285 O 0.0 **** 0.0
14358 H 7.61240079688465 12.648057027461917 38.278333658026646 H 0.0 **** 0.52
14359 H 7.768079392153403 13.893944901831347 37.43250798302109 H 0.0 **** 0.52
14360 M 7.916990558935424 13.04293046036942 37.56121115175283 M 0.0 **** -1.04
14361 O 15.026452543189038 37.4758975579782 26.279745738950975 O 0.0 **** 0.0
14362 H 14.619519772608754 37.41234439821435 27.143803149705917 H 0.0 **** 0.52
14363 H 15.58557170998793 36.70125426519624 26.220230293840523 H 0.0 **** 0.52
14364 M 15.04593403302382 37.36859786049888 26.38273677200073 M 0.0 **** -1.04
14365 O 20.66969135585587 18.600014251176635 32.143186500564724 O 0.0 **** 0.0
14366 H 20.084352561421085 19.33616773265728 32.32119191497588 H 0.0 **** 0.52
14367 H 21.538720464109513 18.99544561621271 32.07499216774507 H 0.0 **** 0.52
14368 M 20.706007361808012 18.74487175449242 32.157243571909966 M 0.0 **** -1.04
14369 O 4.624814864395865 2.6989904732370604 20.83246077138675 O 0.0 **** 0.0
14370 H 5.148232893689543 2.6799369677868867 20.031275054315444 H 0.0 **** 0.52
14371 H 4.967593922996364 1.9777820157135864 21.360274930997175 H 0.0 **** 0.52
14372 M 4.735698697054704 2.604227447614079 20.797466126987132 M 0.0 **** -1.04
14373 O 29.130477150618987 15.34093794051371 14.172280833254565 O 0.0 **** 0.0
14374 H 28.50257254786612 16.048424782061904 14.318654777294366 H 0.0 **** 0.52
14375 H 28.591382294122575 14.5877448290606 13.930815420291257 H 0.0 **** 0.52
14376 M 28.98108693421706 15.335087224591215 14.160108272489621 M 0.0 **** -1.04
14377 O 22.035521249263923 44.13475764229063 18.3997262265707 O 0.0 **** 0.0
14378 H 21.22946815471739 44.61531751892591 18.588324438155702 H 0.0 **** 0.52
14379 H 22.535653360247007 44.719192007721155 17.830048463591282 H 0.0 **** 0.52
14380 M 21.996359314346776 44.271089680899394 18.350942709996755 M 0.0 **** -1.04
14381 O 42.09780478677855 23.654115376643713 38.387640682820404 O 0.0 **** 0.0
14382 H 41.838846824203905 22.779200351533483 38.09834441999362 H 0.0 **** 0.52
14383 H 41.271300782694134 24.10030191699422 38.572132435127756 H 0.0 **** 0.52
14384 M 41.95885235185271 23.599231999506156 38.37422462571876 M 0.0 **** -1.04
14385 O 43.37612094243255 12.546378465785267 18.155920123563988 O 0.0 **** 0.0
14386 H 43.38013887792863 13.50354767116108 18.149706704761986 H 0.0 **** 0.52
14387 H 43.74227101635799 12.299331559870446 17.306725619319575 H 0.0 **** 0.52
14388 M 43.423507141632555 12.637282459454319 18.046417481594105 M 0.0 **** -1.04
14389 O 22.26620060980739 42.408377146910695 11.313456127083597 O 0.0 **** 0.0
14390 H 21.67766166309821 42.04965944418016 11.977662893847736 H 0.0 **** 0.52
14391 H 21.742439396987628 42.4249129346668 10.512438954258982 H 0.0 **** 0.52
14392 M 22.123812421098233 42.36457340686459 11.295943225779197 M 0.0 **** -1.04
14393 O 35.28564535306012 20.303671558960225 45.14523109820184 O 0.0 **** 0.0
14394 H 36.11718965879879 20.165467942965797 44.69173086574116 H 0.0 **** 0.52
14395 H 35.359997715341606 19.78488824171427 45.94620781251238 H 0.0 **** 0.52
14396 M 35.40161174314488 20.21956922246366 45.189713152746734 M 0.0 **** -1.04
14397 O 40.40607555812283 3.6005687592577402 20.77372346032057 O 0.0 **** 0.0
14398 H 39.666846562503494 3.9906713183795546 20.307258092623623 H 0.0 **** 0.52
14399 H 41.1654143097839 4.108087211069147 20.487266275728917 H 0.0 **** 0.52
14400 M 40.408649339284096 3.7154754669115704 20.677340335777426 M 0.0 **** -1.04
14401 O 48.59097498069134 31.52493174452998 17.731283204926836 O 0.0 **** 0.0
14402 H 47.91855652952685 31.567272083560574 17.051363890203554 H 0.0 **** 0.52
14403 H 49.276190746300664 30.971196123415655 17.357003994821568 H 0.0 **** 0.52
14404 M 48.59261375370634 31.459467038219618 17.596331793701577 M 0.0 **** -1.04
14405 O 6.6183924769910565 34.551281757238684 7.099243986599978 O 0.0 **** 0.0
14406 H 6.826730406920193 34.090847506645865 7.912155077644422 H 0.0 **** 0.52
14407 H 7.374429842437405 34.39380757765496 6.533702227857461 H 0.0 **** 0.52
14408 M 6.741843932547967 34.47218170313459 7.130911103908227 M 0.0 **** -1.04
14409 O 40.29798907240639 45.267540182208236 27.30267143509878 O 0.0 **** 0.0
14410 H 39.860781947665664 45.989863408955465 26.85175079833377 H 0.0 **** 0.52
14411 H 40.9313887826161 44.93566844168453 26.66635739272729 H 0.0 **** 0.52
14412 M 40.3231039656047 45.317523289648705 27.163491449916872 M 0.0 **** -1.04
14413 O 0.3836322207210914 33.49206004459573 14.462398124013172 O 0.0 **** 0.0
14414 H 1.2429486258008173 33.267158642564496 14.819080908216836 H 0.0 **** 0.52
14415 H 0.24150682154341313 32.85707523815165 13.760384286891851 H 0.0 **** 0.52
14416 M 0.4754412571425134 33.3819836558988 14.418191053166831 M 0.0 **** -1.04
14417 O 40.66103509786372 16.392669202454023 38.566886486583584 O 0.0 **** 0.0
14418 H 40.53632565387902 16.93580498055692 39.34513980886998 H 0.0 **** 0.52
14419 H 41.23159780628847 16.91223147963364 38.00054487683629 H 0.0 **** 0.52
14420 M 40.71811002492698 16.52870781783136 38.59401398585916 M 0.0 **** -1.04
14421 O 12.55330493268557 40.24420486192657 25.66490307775319 O 0.0 **** 0.0
14422 H 12.276345629734216 39.87620155129084 24.82579809190174 H 0.0 **** 0.52
14423 H 12.651820726426479 41.18108584748215 25.49526677032781 H 0.0 **** 0.52
14424 M 12.530462032256295 40.317028539200244 25.5357712515083 M 0.0 **** -1.04
14425 O 43.21481210158916 24.433528160656486 49.64547860547999 O 0.0 **** 0.0
14426 H 43.1068478248823 25.149792298173097 50.27120966002635 H 0.0 **** 0.52
14427 H 43.15660619107928 24.85367001313453 48.78738724869039 H 0.0 **** 0.52
14428 M 43.193539735265034 24.579002848486358 49.615733715956345 M 0.0 **** -1.04
14429 O 34.97096639553314 24.835343051850934 23.550067410689334 O 0.0 **** 0.0
14430 H 34.55101140384855 25.663419367716475 23.78278532854604 H 0.0 **** 0.52
14431 H 34.6844240658748 24.222347030500433 24.22708806459971 H 0.0 **** 0.52
14432 M 34.88052639851791 24.862875884116818 23.66652568073197 M 0.0 **** -1.04
14433 O 12.533674692743594 29.070959606189124 16.0441248470649 O 0.0 **** 0.0
14434 H 12.743013962274965 28.6754601680914 15.19796581606638 H 0.0 **** 0.52
14435 H 13.100209377648884 28.61698094292174 16.66796108104792 H 0.0 **** 0.52
14436 M 12.632995756366968 28.962215991920345 16.01566459754944 M 0.0 **** -1.04
14437 O 43.16018984102512 8.311779588992664 3.688162017339531 O 0.0 **** 0.0
14438 H 43.30601990007171 8.294856042311215 2.742289004983246 H 0.0 **** 0.52
14439 H 42.21841731566628 8.172986892563845 3.7883104735582775 H 0.0 **** 0.52
14440 M 43.058298969590496 8.291845801020049 3.5798985929278224 M 0.0 **** -1.04
14441 O 21.238861423746187 29.84159407649864 21.062518380973042 O 0.0 **** 0.0
14442 H 21.727974281725153 29.47527016108804 21.799270169495315 H 0.0 **** 0.52
14443 H 20.58375839245332 29.175441263595072 20.854406923315405 H 0.0 **** 0.52
14444 M 21.217612219271018 29.709423790767186 21.130190808503272 M 0.0 **** -1.04
14445 O 38.90569199878391 16.01047091580584 3.6831432202485033 O 0.0 **** 0.0
14446 H 38.331444211705396 15.244802147992408 3.6979094358789197 H 0.0 **** 0.52
14447 H 39.05759075628686 16.21436710400597 4.605955948523892 H 0.0 **** 0.52
14448 M 38.85162617179045 15.938557202806008 3.803165466386794 M 0.0 **** -1.04
14449 O 15.36447112104792 6.143156616710215 16.900625725286943 O 0.0 **** 0.0
14450 H 14.670091211391473 6.174065091883371 16.242515198872773 H 0.0 **** 0.52
14451 H 16.170646635007827 6.043049427655703 16.394376487237906 H 0.0 **** 0.52
14452 M 15.378781689079736 6.134297995172076 16.751573079778538 M 0.0 **** -1.04
14453 O 7.478325131925651 8.77118474834496 34.73132548266661 O 0.0 **** 0.0
14454 H 7.1175073201064905 9.638397995696845 34.915662074644054 H 0.0 **** 0.52
14455 H 8.069426849947746 8.596560335979742 35.46367308302717 H 0.0 **** 0.52
14456 M 7.5078043465682285 8.859844466332307 34.848672812582855 M 0.0 **** -1.04
14457 O 6.384278355121076 1.3444799962340117 4.7669011673067985 O 0.0 **** 0.0
14458 H 6.607362104671488 0.4293277046046 4.5967264636700165 H 0.0 **** 0.52
14459 H 5.477030829682207 1.4288742521682996 4.473631342701118 H 0.0 **** 0.52
14460 M 6.296696970265302 1.2381326742294851 4.707573997753485 M 0.0 **** -1.04
14461 O 22.908015960508678 28.962652436496278 47.7246175288398 O 0.0 **** 0.0
14462 H 23.74249917954417 29.014776274672894 47.25862384521511 H 0.0 **** 0.52
14463 H 22.47623915125692 28.191008951860056 47.35806050868868 H 0.0 **** 0.52
14464 M 22.959567524474522 28.870544980329772 47.618040941034636 M 0.0 **** -1.04
14465 O 30.142368993835397 24.190120114429096 46.62079598449668 O 0.0 **** 0.0
14466 H 29.40894770253896 24.45487766861527 47.175977234244414 H 0.0 **** 0.52
14467 H 29.737020894591478 23.94169633140219 45.79000996290148 H 0.0 **** 0.52
14468 M 29.99659289277575 24.19221105760962 46.585515865882016 M 0.0 **** -1.04
14469 O 7.300710786477659 8.646377733253495 44.22879103492575 O 0.0 **** 0.0
14470 H 7.348012856093469 8.683235981004954 43.27347339021969 H 0.0 **** 0.52
14471 H 7.231114985323266 7.713114314322444 44.429800811936175 H 0.0 **** 0.52
14472 M 7.297856727451183 8.531626766422933 44.132230805283704 M 0.0 **** -1.04
14473 O 23.49177658625231 35.4812625817077 41.58413752867994 O 0.0 **** 0.0
14474 H 22.985400739211872 35.8145267830824 42.32491235700957 H 0.0 **** 0.52
14475 H 24.28438716146514 36.017828441984584 41.57444909920153 H 0.0 **** 0.52
14476 M 23.52841848771133 35.592611774597025 41.67772568753233 M 0.0 **** -1.04
14477 O 39.389661719932 42.74432892136159 27.990772467936473 O 0.0 **** 0.0
14478 H 39.44401837714514 43.69820390595866 27.932498261618715 H 0.0 **** 0.52
14479 H 38.58671232929542 42.579455601544005 28.48505775239381 H 0.0 **** 0.52
14480 M 39.293832982290986 42.84533101073612 28.046587264443495 M 0.0 **** -1.04
14481 O 37.37175120123925 48.485076991388105 37.828104711097055 O 0.0 **** 0.0
14482 H 38.08159726184042 47.84319448710985 37.846389336778486 H 0.0 **** 0.52
14483 H 37.2834933913113 48.77125373372849 38.73724767874352 H 0.0 **** 0.52
14484 M 37.45132209473699 48.43954179968699 37.946826832075885 M 0.0 **** -1.04
14485 O 26.677033679706906 15.444991985132706 35.18253018338032 O 0.0 **** 0.0
14486 H 27.18990171952956 16.194250411018512 35.48552728011099 H 0.0 **** 0.52
14487 H 25.973691190205706 15.35956193018813 35.826143866833405 H 0.0 **** 0.52
14488 M 26.652650226990904 15.529970338688889 35.30370812481581 M 0.0 **** -1.04
14489 O 34.326457668959364 46.81748849955286 4.392197950933777 O 0.0 **** 0.0
14490 H 34.76299974243947 46.57872157993222 3.574488391734846 H 0.0 **** 0.52
14491 H 34.70800331106992 47.662512988295674 4.6300754327729265 H 0.0 **** 0.52
14492 M 34.431182967072964 46.89509685649278 4.317972797393352 M 0.0 **** -1.04
14493 O 29.759093571212702 19.868285973190684 0.4363289895464959 O 0.0 **** 0.0
14494 H 30.45123239446241 19.888924733420072 -0.22453916880488123 H 0.0 **** 0.52
14495 H 29.744112091811004 20.75523868694682 0.795938331323903 H 0.0 **** 0.52
14496 M 29.845778285020216 19.984469065877377 0.39776492328184077 M 0.0 **** -1.04
14497 O 11.34735511477051 38.22756601231327 20.2151610205809 O 0.0 **** 0.0
14498 H 10.502488790468433 37.78923945441886 20.3166477505598 H 0.0 **** 0.52
14499 H 11.58787440554894 38.49353077961402 21.10265281044894 H 0.0 **** 0.52
14500 M 11.26999106844787 38.205501365991964 20.34176292493588 M 0.0 **** -1.04
14501 O 2.247802804651461 10.10046530989544 16.561613916478073 O 0.0 **** 0.0
14502 H 1.311289334446858 10.19111871352311 16.73754702962504 H 0.0 **** 0.52
14503 H 2.67249719317907 10.598926044999537 17.259755076300486 H 0.0 **** 0.52
14504 M 2.182283776785665 10.17587952163862 16.673506069105787 M 0.0 **** -1.04
14505 O 44.11987823960572 48.925031393652176 25.149298821473923 O 0.0 **** 0.0
14506 H 44.38037094992327 49.20753149858794 24.27262037969711 H 0.0 **** 0.52
14507 H 44.85592061520432 49.17143570748948 25.709437332475506 H 0.0 **** 0.52
14508 M 44.24744688783647 48.99273808350145 25.108778002081355 M 0.0 **** -1.04
14509 O 2.825198767327656 6.657981640280667 42.9186748715816 O 0.0 **** 0.0
14510 H 2.0528791180834602 6.824135913465753 42.37817252584531 H 0.0 **** 0.52
14511 H 2.777042412358469 7.313915908389049 43.614131205197154 H 0.0 **** 0.52
14512 M 2.7201675287747378 6.7632199564389595 42.938510876577645 M 0.0 **** -1.04
14513 O 31.79636202559582 39.66298929268959 7.286549502531144 O 0.0 **** 0.0
14514 H 32.120990557525566 39.180724924956685 6.526110582699602 H 0.0 **** 0.52
14515 H 31.097685200399788 39.11219274600054 7.639683062378764 H 0.0 **** 0.52
14516 M 31.7484790475846 39.530744259394176 7.234408721299188 M 0.0 **** -1.04
14517 O 27.194727959387095 21.466188342856558 29.10736968494262 O 0.0 **** 0.0
14518 H 27.085086038125 20.71866663354159 29.695092854077327 H 0.0 **** 0.52
14519 H 27.094557436047488 21.09799326557769 28.229516145416557 H 0.0 **** 0.52
14520 M 27.16786931345687 21.323362862848374 29.0702294015538 M 0.0 **** -1.04
14521 O 23.095114920345708 28.600974993269546 32.84939172634337 O 0.0 **** 0.0
14522 H 22.259107756225177 28.774000016368554 33.28227025273001 H 0.0 **** 0.52
14523 H 22.944321059321354 27.79984764287116 32.347709588242 H 0.0 **** 0.52
14524 M 22.9687919886305 28.52057013530696 32.840584527759944 M 0.0 **** -1.04
14525 O 37.74659390573644 24.93374402286667 22.135457718633702 O 0.0 **** 0.0
14526 H 36.989765397027135 25.225291843055768 22.643827112725067 H 0.0 **** 0.52
14527 H 38.33237906244335 25.690640341889893 22.121588202638478 H 0.0 **** 0.52
14528 M 37.724697666860784 25.067957691550152 22.198759879889217 M 0.0 **** -1.04
14529 O 44.72567969020778 4.307341192802205 22.740100413608236 O 0.0 **** 0.0
14530 H 45.22033631578003 5.000773852312577 23.176785792482345 H 0.0 **** 0.52
14531 H 45.21562341811734 3.5071859930341702 22.929668050948653 H 0.0 **** 0.52
14532 M 44.851720933319534 4.293679387394199 22.82026879340244 M 0.0 **** -1.04
14533 O 29.686872862803984 6.329260523922859 37.068637076710225 O 0.0 **** 0.0
14534 H 28.846371185467156 6.705271074258951 36.80710161460652 H 0.0 **** 0.52
14535 H 29.689221521902812 6.388097514025032 38.02402282336862 H 0.0 **** 0.52
14536 M 29.579578365688405 6.384926574327603 37.15745890487241 M 0.0 **** -1.04
14537 O 1.5746310709461397 39.47078915101527 3.079635499522489 O 0.0 **** 0.0
14538 H 1.8988611385600862 39.85099696070576 2.263212658458116 H 0.0 **** 0.52
14539 H 1.9665095417918508 38.59802042448336 3.110187595599598 H 0.0 **** 0.52
14540 M 1.666301961807278 39.40773530552062 2.97903385074342 M 0.0 **** -1.04
14541 O 43.85368619931727 28.999457323152853 19.931920522727665 O 0.0 **** 0.0
14542 H 43.136159943195885 29.576882895197667 20.192619180537953 H 0.0 **** 0.52
14543 H 44.376306584912186 28.892239214876106 20.726652818663297 H 0.0 **** 0.52
14544 M 43.82873579365041 29.059649970099677 20.067028760713335 M 0.0 **** -1.04
14545 O 6.675767952775158 36.677781815794276 36.908475744865754 O 0.0 **** 0.0
14546 H 6.3655980963563525 36.22173036917204 36.126145720728516 H 0.0 **** 0.52
14547 H 6.345150174711254 36.15420687230431 37.63840082115182 H 0.0 **** 0.52
14548 M 6.59373880082119 36.552378025559285 36.90176672568237 M 0.0 **** -1.04
14549 O 12.981825775417688 26.717770426612653 2.4458534819912288 O 0.0 **** 0.0
14550 H 12.276892510332347 26.992919976442803 1.8596876641662163 H 0.0 **** 0.52
14551 H 13.757679249015219 26.679166781943415 1.886576898974404 H 0.0 **** 0.52
14552 M 12.990905074008099 26.748050881742824 2.2992226647009417 M 0.0 **** -1.04
14553 O 3.2653265589077165 31.518890843275212 23.387679711130442 O 0.0 **** 0.0
14554 H 2.517947912567621 31.71201318958683 22.8216780198687 H 0.0 **** 0.52
14555 H 3.1621871869375155 30.59466200770592 23.614378361144144 H 0.0 **** 0.52
14556 M 3.1564492061628115 31.425299943701457 23.344244918460937 M 0.0 **** -1.04
14557 O 6.310442742010341 21.14326846638608 18.149144601082188 O 0.0 **** 0.0
14558 H 6.180553948199558 21.348495654920868 17.223273307913608 H 0.0 **** 0.52
14559 H 5.952327953775554 20.26157055578745 18.252058411577835 H 0.0 **** 0.52
14560 M 6.24797223380915 21.056671423335892 18.043796170638007 M 0.0 **** -1.04
14561 O 6.400253363793617 41.072156220777664 47.426796977328365 O 0.0 **** 0.0
14562 H 6.487976872773771 40.43626265259042 46.71674608848836 H 0.0 **** 0.52
14563 H 5.856096672033324 41.76864726010459 47.05934177710394 H 0.0 **** 0.52
14564 M 6.341823979969213 41.07991377683845 47.2888633652903 M 0.0 **** -1.04
14565 O 13.55991076324925 42.971576521129066 2.328440908495978 O 0.0 **** 0.0
14566 H 12.659043471869555 42.73648832595519 2.106176591103496 H 0.0 **** 0.52
14567 H 14.098938725198854 42.388175618708786 1.7942864871902167 H 0.0 **** 0.52
14568 M 13.513590643773092 42.86679926886433 2.2316105386084226 M 0.0 **** -1.04
14569 O 8.851092997157831 40.7452553184154 2.369685661012578 O 0.0 **** 0.0
14570 H 8.810004580066467 40.513869675697414 1.4417841356473642 H 0.0 **** 0.52
14571 H 8.006061953155413 41.15615289216752 2.5522073794380464 H 0.0 **** 0.52
14572 M 8.737658595756372 40.768235123194344 2.274267084126214 M 0.0 **** -1.04
14573 O 31.759729129867996 44.43151244017788 29.489159106728582 O 0.0 **** 0.0
14574 H 31.18789033935156 44.7128412085501 30.203360507962145 H 0.0 **** 0.52
14575 H 32.61054330730731 44.817971732844974 29.696506366017477 H 0.0 **** 0.52
14576 M 31.79544145212255 44.5169972761153 29.60712858979917 M 0.0 **** -1.04
14577 O 24.676925361374646 30.87019320597828 32.240132800991276 O 0.0 **** 0.0
14578 H 23.88907066206044 30.48074746084691 32.61940289959914 H 0.0 **** 0.52
14579 H 24.65373547507776 30.610129482388196 31.319232538743826 H 0.0 **** 0.52
14580 M 24.573101319310606 30.787047926022368 32.1707973345147 M 0.0 **** -1.04
14581 O 23.274703580885586 9.88360339061817 43.47055207650212 O 0.0 **** 0.0
14582 H 23.56296314929012 9.935400216726599 44.38184311652913 H 0.0 **** 0.52
14583 H 22.395814513295328 10.262764236388414 43.4749301254157 H 0.0 **** 0.52
14584 M 23.199095957511727 9.938771338454004 43.58776925324819 M 0.0 **** -1.04
14585 O 8.617179356220536 3.3388965088910467 33.72729010049166 O 0.0 **** 0.0
14586 H 7.88808656486583 3.676813688024396 33.20722903280342 H 0.0 **** 0.52
14587 H 8.369339914454297 2.436923556329077 33.93038867953027 H 0.0 **** 0.52
14588 M 8.492119722220446 3.2666902424481066 33.68671521318272 M 0.0 **** -1.04
14589 O 40.39123695872579 3.0473050156869914 16.758301497611257 O 0.0 **** 0.0
14590 H 40.15626787478024 2.8859983666715388 15.844518971891873 H 0.0 **** 0.52
14591 H 40.86416126654119 2.259707172302898 17.02711731246032 H 0.0 **** 0.52
14592 M 40.42169840651229 2.9258333668043806 16.67573769140364 M 0.0 **** -1.04
14593 O 48.26950075866368 5.549399666226917 33.62317363392796 O 0.0 **** 0.0
14594 H 47.70209629094738 5.47261288004328 32.85611188074388 H 0.0 **** 0.52
14595 H 47.76164579619248 6.069042875685772 34.24629746670629 H 0.0 **** 0.52
14596 M 48.13185356473889 5.606091503152905 33.604748015034495 M 0.0 **** -1.04
14597 O 8.663695552104208 41.331958286061145 31.693306831737697 O 0.0 **** 0.0
14598 H 9.38787379281338 41.950137003148406 31.791539677974974 H 0.0 **** 0.52
14599 H 8.433259713129067 41.08785694880574 32.58971223706115 H 0.0 **** 0.52
14600 M 8.726900353282268 41.37984454605796 31.820632583200386 M 0.0 **** -1.04
14601 O 46.86585535413654 47.51656118284477 41.45849125074719 O 0.0 **** 0.0
14602 H 47.13069528219557 46.72364469473657 41.924723572950555 H 0.0 **** 0.52
14603 H 45.96311276733962 47.34655577734429 41.189449350556735 H 0.0 **** 0.52
14604 M 46.78419539493319 47.393295023267804 41.4837343620265 M 0.0 **** -1.04
14605 O 29.651500260597007 18.487239197921436 24.686530475280108 O 0.0 **** 0.0
14606 H 29.44962025677499 19.390610978870694 24.442820664196336 H 0.0 **** 0.52
14607 H 30.5015118089061 18.313779343595492 24.282029722282644 H 0.0 **** 0.52
14608 M 29.7344685160666 18.580677105692697 24.60355136802629 M 0.0 **** -1.04
14609 O 36.44052001196827 20.87483265188839 35.653250146315116 O 0.0 **** 0.0
14610 H 36.76975869406827 21.57782285069379 36.21328320346963 H 0.0 **** 0.52
14611 H 37.20360695207517 20.32037854275235 35.49043799667729 H 0.0 **** 0.52
14612 M 36.58035183777108 20.893847951793145 35.704099687317864 M 0.0 **** -1.04
14613 O 22.04359107183998 29.937785874445044 37.766415099254644 O 0.0 **** 0.0
14614 H 22.66731570271536 29.767176824614317 38.47216872063287 H 0.0 **** 0.52
14615 H 22.448801005099206 30.63555609539352 37.25148756693208 H 0.0 **** 0.52
14616 M 22.175307866235347 30.00526916114266 37.79084269741129 M 0.0 **** -1.04
14617 O 0.6327280012315981 49.64397368782698 36.62386852242805 O 0.0 **** 0.0
14618 H -0.13028771223365254 49.95717801088964 36.13813302544439 H 0.0 **** 0.52
14619 H 0.32056463303578653 48.86556132898786 37.08523354019071 H 0.0 **** 0.52
14620 M 0.4950916350973955 49.584421506091985 36.620749049239514 M 0.0 **** -1.04
14621 O 49.652241278288656 32.12720603853616 5.107263286636577 O 0.0 **** 0.0
14622 H 50.32256091836379 31.444635426453267 5.13884465925795 H 0.0 **** 0.52
14623 H 49.53186044274831 32.38778394099052 6.0204096242437695 H 0.0 **** 0.52
14624 M 49.722640120742355 32.07318525811604 5.228200061804384 M 0.0 **** -1.04
14625 O 26.990195015658642 16.80232278617565 17.754044540675505 O 0.0 **** 0.0
14626 H 26.21041678947722 16.3869971470127 18.12238930014616 H 0.0 **** 0.52
14627 H 27.722621088896123 16.316103993780786 18.132691490663564 H 0.0 **** 0.52
14628 M 26.984133393923607 16.686913973004877 17.84966891454777 M 0.0 **** -1.04
14629 O 41.234316494939385 23.29819663221626 23.16564919887955 O 0.0 **** 0.0
14630 H 41.27487513908755 23.49464440094144 22.229704772787798 H 0.0 **** 0.52
14631 H 41.47491789327646 22.373796359630475 23.22749012648444 H 0.0 **** 0.52
14632 M 41.270308708128674 23.205009154291048 23.05375227929433 M 0.0 **** -1.04
14633 O 25.524913487453638 26.429198951415756 23.682021078709425 O 0.0 **** 0.0
14634 H 25.50484048606503 25.660430709369724 24.251952813773897 H 0.0 **** 0.52
14635 H 25.57016427536584 27.17259532824088 24.2833041788773 H 0.0 **** 0.52
14636 M 25.528136295468524 26.425950830547926 23.83195178877361 M 0.0 **** -1.04
14637 O 24.260800269310664 41.92099699134016 29.88753441545289 O 0.0 **** 0.0
14638 H 23.435084154387027 41.51570259260614 29.622661714234866 H 0.0 **** 0.52
14639 H 24.87539894973446 41.190441878357426 29.956716999355393 H 0.0 **** 0.52
14640 M 24.233775315522536 41.775594231965755 29.862483703346385 M 0.0 **** -1.04
14641 O 12.721743346580087 13.411411880271999 37.463937249612364 O 0.0 **** 0.0
14642 H 11.88326305289931 13.699919418818524 37.1034612702638 H 0.0 **** 0.52
14643 H 12.831298643733389 13.92970067303743 38.26118494307337 H 0.0 **** 0.52
14644 M 12.62843234973802 13.514691589784633 37.51984954580324 M 0.0 **** -1.04
14645 O 5.728832691258518 7.452256720490634 47.32530966142883 O 0.0 **** 0.0
14646 H 5.332682097224754 8.14472927686835 46.79637320976104 H 0.0 **** 0.52
14647 H 5.81256318874471 6.710627076545371 46.72597364310285 H 0.0 **** 0.52
14648 M 5.688839659368546 7.445963617526486 47.180876476830065 M 0.0 **** -1.04
14649 O 34.271326846599 6.874165942319524 41.685442422059545 O 0.0 **** 0.0
14650 H 34.777799418049426 6.356265305294097 41.059748027091416 H 0.0 **** 0.52
14651 H 34.78773265948439 7.670158457486076 41.81173176426418 H 0.0 **** 0.52
14652 M 34.40226810518947 6.90976474859641 41.6215123981397 M 0.0 **** -1.04
14653 O 31.097439951034207 29.08255515725522 45.17740377087036 O 0.0 **** 0.0
14654 H 31.138538108688604 28.246018716867013 44.713996946453236 H 0.0 **** 0.52
14655 H 30.586687269662423 28.89572161995978 45.9650914659206 H 0.0 **** 0.52
14656 M 31.037318200998307 28.951550836323452 45.21891529291919 M 0.0 **** -1.04
14657 O 26.343381268200833 27.273913972122976 38.91326122252719 O 0.0 **** 0.0
14658 H 25.39813756426245 27.2619664035806 39.063595170719466 H 0.0 **** 0.52
14659 H 26.495765920190323 26.566151133341233 38.28709951063882 H 0.0 **** 0.52
14660 M 26.241885516230155 27.181781987936155 38.852348977947884 M 0.0 **** -1.04
14661 O 37.20797247872285 6.515546914144807 1.946128306306301 O 0.0 **** 0.0
14662 H 36.28562728278189 6.398148490304287 2.1735605085346075 H 0.0 **** 0.52
14663 H 37.200085287048864 6.724831292934667 1.0121226219381194 H 0.0 **** 0.52
14664 M 37.088891205536505 6.527309199712988 1.8556786192613532 M 0.0 **** -1.04
14665 O 8.411426480702886 24.490718512622287 31.763000745521172 O 0.0 **** 0.0
14666 H 8.20114473593209 24.51050063226819 32.69660549638301 H 0.0 **** 0.52
14667 H 8.92540481943361 23.69121438778982 31.6496532059766 H 0.0 **** 0.52
14668 M 8.45030345946823 24.390904920215554 31.868003361388222 M 0.0 **** -1.04
14669 O 9.84374320735044 14.59707718110321 27.97727241730003 O 0.0 **** 0.0
14670 H 10.369496069241013 13.98720495633425 28.494832102985555 H 0.0 **** 0.52
14671 H 9.361323382788587 15.108867889780834 28.626555778588944 H 0.0 **** 0.52
14672 M 9.849290585422963 14.584520767349593 28.126643189702666 M 0.0 **** -1.04
14673 O 0.34553673561570974 11.346580000138449 48.13784299932112 O 0.0 **** 0.0
14674 H 0.016532531895812497 10.47310861203046 47.92563462104713 H 0.0 **** 0.52
14675 H 1.1513941019021274 11.1867043178775 48.62902760251717 H 0.0 **** 0.52
14676 M 0.4065796890118776 11.214298462383438 48.173555296920874 M 0.0 **** -1.04
14677 O 44.82633091076443 42.713831610355186 20.840921768751997 O 0.0 **** 0.0
14678 H 44.67852816391494 43.56511327249321 21.25287057608657 H 0.0 **** 0.52
14679 H 45.41067539841022 42.90096147193928 20.106242963230443 H 0.0 **** 0.52
14680 M 44.88221422315249 42.8467605741047 20.79960820325565 M 0.0 **** -1.04
14681 O 6.685787002891788 24.569690753251223 37.706633005881585 O 0.0 **** 0.0
14682 H 6.86148065814158 24.231658555585454 38.584753624505844 H 0.0 **** 0.52
14683 H 6.017603419583532 25.242433434316737 37.837693667656694 H 0.0 **** 0.52
14684 M 6.622742109609906 24.612538572748292 37.835821167585515 M 0.0 **** -1.04
14685 O 39.875717570853816 12.539114274276264 10.972335330329313 O 0.0 **** 0.0
14686 H 39.96015796884825 12.05028139736126 11.790956703193878 H 0.0 **** 0.52
14687 H 40.71127530593479 12.996617964079471 10.8787283402275 H 0.0 **** 0.52
14688 M 39.99348914238868 12.535103538009011 11.065146097634651 M 0.0 **** -1.04
14689 O 3.5703320563357934 20.819027433619222 45.0186340565835 O 0.0 **** 0.0
14690 H 2.632118251052823 20.861210949361602 44.83369208345181 H 0.0 **** 0.52
14691 H 3.747622963127263 21.602000787885288 45.53993022424657 H 0.0 **** 0.52
14692 M 3.4729244543524658 20.92465797572043 45.06169254476248 M 0.0 **** -1.04
14693 O 1.8573698538735641 42.19385868355346 3.872330653748584 O 0.0 **** 0.0
14694 H 2.151380261926498 42.36462327796596 2.977554239785114 H 0.0 **** 0.52
14695 H 1.9274698278224776 41.24433212906192 3.9708846739681363 H 0.0 **** 0.52
14696 M 1.9039801709555348 42.0941679703617 3.7704043213420135 M 0.0 **** -1.04
14697 O 30.72212939637708 15.001953228357376 9.674508337281992 O 0.0 **** 0.0
14698 H 30.40519089600379 14.469944618754317 10.404402677141178 H 0.0 **** 0.52
14699 H 31.195345683992777 15.72254528832096 10.090492027048526 H 0.0 **** 0.52
14700 M 30.742135403479413 15.026093864692253 9.821195289950495 M 0.0 **** -1.04
14701 O 25.791843401115802 35.49236308215262 5.547461161071799 O 0.0 **** 0.0
14702 H 24.8550650099035 35.48839228587452 5.350842996839927 H 0.0 **** 0.52
14703 H 25.911016031633725 34.768764726468824 6.162629208768887 H 0.0 **** 0.52
14704 M 25.68718009467189 35.39922467541557 5.601040713782652 M 0.0 **** -1.04
14705 O 36.37916479384938 36.08651568269842 25.05934183370842 O 0.0 **** 0.0
14706 H 35.906853156446324 35.25442923487295 25.031376364906578 H 0.0 **** 0.52
14707 H 37.27496809739542 35.862587897337754 24.80710934736709 H 0.0 **** 0.52
14708 M 36.43337738139644 35.95133230997821 25.023472956217585 M 0.0 **** -1.04
14709 O 38.262384018579304 36.54088546873704 49.24349217728371 O 0.0 **** 0.0
14710 H 37.676225182955356 35.857189217235614 49.567846306641854 H 0.0 **** 0.52
14711 H 39.073932623228124 36.414291243830604 49.735011446498746 H 0.0 **** 0.52
14712 M 38.2912365536563 36.43715798228018 49.34793421808133 M 0.0 **** -1.04
14713 O 37.56813472273136 10.302445136112695 41.72237832330404 O 0.0 **** 0.0
14714 H 37.23223795110367 10.785339768418218 42.477503772074535 H 0.0 **** 0.52
14715 H 36.832974472214474 10.272819433723704 41.11009550118413 H 0.0 **** 0.52
14716 M 37.43102592986407 10.360470247155064 41.74066372545982 M 0.0 **** -1.04
14717 O 18.299781280906913 24.19901448968107 10.6944605805935 O 0.0 **** 0.0
14718 H 17.818574465493697 23.556865240583612 10.172623213262945 H 0.0 **** 0.52
14719 H 17.92329018747573 25.042599826390216 10.443768569800667 H 0.0 **** 0.52
14720 M 18.189985356766954 24.22480129624746 10.595567164860377 M 0.0 **** -1.04
14721 O 24.07077784041416 37.300355854288995 16.516838960928844 O 0.0 **** 0.0
14722 H 24.77209351600934 37.71294655646125 17.020974307722653 H 0.0 **** 0.52
14723 H 23.351855371066023 37.202691516345894 17.1412112769831 H 0.0 **** 0.52
14724 M 24.068524148598105 37.34067011733653 16.66130200106764 M 0.0 **** -1.04
14725 O 11.46736052411908 49.486873805825745 44.97164958104589 O 0.0 **** 0.0
14726 H 10.55737876377826 49.336235313057934 44.715778821511 H 0.0 **** 0.52
14727 H 11.952759126230923 48.76842233583438 44.56613254022836 H 0.0 **** 0.52
14728 M 11.413007803079509 49.37561967599036 44.88698316628671 M 0.0 **** -1.04
14729 O 36.26490608239481 38.57519714676388 18.113888578087085 O 0.0 **** 0.0
14730 H 36.34394524777638 37.636603006307425 17.94353229973848 H 0.0 **** 0.52
14731 H 37.16039325888339 38.86319855726961 18.291050552450677 H 0.0 **** 0.52
14732 M 36.389657863981235 38.49191289181208 18.11475951672821 M 0.0 **** -1.04
14733 O 31.336693535334014 47.670065231559484 27.439601141442473 O 0.0 **** 0.0
14734 H 31.688720094692258 48.30723406972802 26.818053667817512 H 0.0 **** 0.52
14735 H 32.05935502069289 47.06193847701743 27.595074885081978 H 0.0 **** 0.52
14736 M 31.474267546477368 47.67378318638037 27.379938227116156 M 0.0 **** -1.04
14737 O 11.384341872080753 43.48585371721331 15.01742114368378 O 0.0 **** 0.0
14738 H 12.193733637788098 43.597812492067874 14.518844575105266 H 0.0 **** 0.52
14739 H 10.7314783807726 43.98965981832079 14.531440612289655 H 0.0 **** 0.52
14740 M 11.404379987791552 43.564679640619026 14.891386052256813 M 0.0 **** -1.04
14741 O 23.05311810378867 21.960926900310614 33.29505953460138 O 0.0 **** 0.0
14742 H 23.98956157617057 21.94056451349586 33.492259842737916 H 0.0 **** 0.52
14743 H 22.91551313965678 21.218369006931688 32.70692601720204 H 0.0 **** 0.52
14744 M 23.15538013217321 21.86326398884903 33.24501522901606 M 0.0 **** -1.04
14745 O 15.450843297111556 13.702818991977537 32.9072494591916 O 0.0 **** 0.0
14746 H 14.526736932523164 13.756644733787923 32.66360890285084 H 0.0 **** 0.52
14747 H 15.882932096522659 14.35457996904421 32.35522142227246 H 0.0 **** 0.52
14748 M 15.387858399901113 13.793143203057632 32.80539424081704 M 0.0 **** -1.04
14749 O 28.659075196914237 6.698470245617756 45.936180342386876 O 0.0 **** 0.0
14750 H 28.043904060369314 6.123320683111132 45.48121104772003 H 0.0 **** 0.52
14751 H 28.27685579448284 7.572136563515052 45.853448235463745 H 0.0 **** 0.52
14752 M 28.53139609069212 6.7366844961527335 45.867348064054866 M 0.0 **** -1.04
14753 O 40.023766761683696 33.20942292541848 11.531856583942258 O 0.0 **** 0.0
14754 H 40.94480852326069 33.01610284156851 11.35710521422503 H 0.0 **** 0.52
14755 H 40.034626266149445 33.71451878607476 12.344868478594059 H 0.0 **** 0.52
14756 M 40.14306224226739 33.24933435735353 11.613561675792255 M 0.0 **** -1.04
14757 O 29.428286811665586 4.84736182259622 39.43856289826812 O 0.0 **** 0.0
14758 H 28.91734677915223 4.203582884937856 38.94793265624462 H 0.0 **** 0.52
14759 H 29.49583155383733 4.4791838897592084 40.319534575720986 H 0.0 **** 0.52
14760 M 29.371527293129233 4.717818169806817 39.48853096558599 M 0.0 **** -1.04
14761 O 7.743629246567358 6.096138952123982 9.2071953388308 O 0.0 **** 0.0
14762 H 8.145554410759695 5.727852852213672 9.993992678533019 H 0.0 **** 0.52
14763 H 8.351984741330375 5.876411773446283 8.50160844450619 H 0.0 **** 0.52
14764 M 7.872957535325396 6.020865549437056 9.21759113186657 M 0.0 **** -1.04
14765 O 22.484483035844818 34.62073500428191 7.5806276003909225 O 0.0 **** 0.0
14766 H 22.609918304094734 34.488507880075886 8.520313372696155 H 0.0 **** 0.52
14767 H 22.42275955471979 35.57041652035377 7.478038574448104 H 0.0 **** 0.52
14768 M 22.492638897926355 34.7253797464834 7.687786290665237 M 0.0 **** -1.04
14769 O 35.02170226019578 23.245102174378157 21.263737810378302 O 0.0 **** 0.0
14770 H 34.93011107687662 23.87723481438347 21.976652264629678 H 0.0 **** 0.52
14771 H 34.13802858599563 23.156307367455923 20.906717513775035 H 0.0 **** 0.52
14772 M 34.89685575952437 23.31465608761495 21.30929705424343 M 0.0 **** -1.04
14773 O 38.797797485748426 13.386869103218372 45.481007175164166 O 0.0 **** 0.0
14774 H 38.708522662047024 13.681436896273754 46.387368335414 H 0.0 **** 0.52
14775 H 38.19311164495894 13.941259245713688 44.987819279742354 H 0.0 **** 0.52
14776 M 38.70896212671353 13.495546525799773 45.53389926810064 M 0.0 **** -1.04
14777 O 27.931129894932536 6.230119874888487 18.960499697758422 O 0.0 **** 0.0
14778 H 28.820473975069778 6.478113305295366 19.21307889144186 H 0.0 **** 0.52
14779 H 27.98047252952864 5.287255216367676 18.803019842413484 H 0.0 **** 0.52
14780 M 28.051293724487774 6.141168082083311 18.97267365407356 M 0.0 **** -1.04
14781 O 40.18983252672092 47.26696170998737 23.297019407479453 O 0.0 **** 0.0
14782 H 40.652004858126645 47.30831144831528 24.13422707506031 H 0.0 **** 0.52
14783 H 40.58421649996051 47.96233565236578 22.77057388841712 H 0.0 **** 0.52
14784 M 40.299482799964146 47.36127140065101 23.336800511167155 M 0.0 **** -1.04
14785 O 1.6114749089375948 18.9589979914073 29.221697585774788 O 0.0 **** 0.0
14786 H 1.6966959493593308 18.045439449452072 29.494420862401533 H 0.0 **** 0.52
14787 H 1.6377265749153196 19.456836715900405 30.03882452542029 H 0.0 **** 0.52
14788 M 1.6257452168306088 18.90578022656628 29.36121237988275 M 0.0 **** -1.04
14789 O 3.7067281173545084 14.938951949379096 39.32634762185028 O 0.0 **** 0.0
14790 H 4.528833261843431 14.748224441226778 39.77800560690581 H 0.0 **** 0.52
14791 H 3.344853942155659 15.691528781440002 39.79421765208718 H 0.0 **** 0.52
14792 M 3.765643704818359 15.010875453914712 39.44405920390625 M 0.0 **** -1.04
14793 O 21.699151905216542 8.018044376894185 36.69243613978061 O 0.0 **** 0.0
14794 H 22.53230110173015 7.553376061106623 36.77101120130441 H 0.0 **** 0.52
14795 H 21.119951445817396 7.3988006509091475 36.24825995706978 H 0.0 **** 0.52
14796 M 21.73165971026681 7.879290123651538 36.64563507438779 M 0.0 **** -1.04
14797 O 11.501773421144474 31.985768487152505 39.949333607304766 O 0.0 **** 0.0
14798 H 11.792722689222092 32.43656639998255 40.742024883150386 H 0.0 **** 0.52
14799 H 12.230053998145337 31.408230557551494 39.72067291532635 H 0.0 **** 0.52
14800 M 11.63224758417521 31.9695444333467 40.02153655692266 M 0.0 **** -1.04
14801 O 39.248502773419744 16.614787701590927 6.24903524996978 O 0.0 **** 0.0
14802 H 38.3042716526334 16.457865275000575 6.243263265548976 H 0.0 **** 0.52
14803 H 39.33618254376327 17.55651871543939 6.101783013582541 H 0.0 **** 0.52
14804 M 39.13885316037653 16.715252570736894 6.2294461820504266 M 0.0 **** -1.04
14805 O 6.778740917771219 16.421708416938614 4.810430645933467 O 0.0 **** 0.0
14806 H 6.7122778105379215 17.35740486866635 5.000915158779774 H 0.0 **** 0.52
14807 H 6.435863374356685 15.99229641212338 5.594182933624436 H 0.0 **** 0.52
14808 M 6.726339853673999 16.486519701827845 4.935145199621047 M 0.0 **** -1.04
14809 O 5.882751639792957 2.403411900187649 9.193904106413408 O 0.0 **** 0.0
14810 H 5.032869462324044 2.3043762690040097 8.764810557009008 H 0.0 **** 0.52
14811 H 5.681141288705248 2.398903999710363 10.129619061637106 H 0.0 **** 0.52
14812 M 5.748147726819511 2.3901565516036314 9.258758509002172 M 0.0 **** -1.04
14813 O 21.997657264918278 30.09823851031517 5.265482470006219 O 0.0 **** 0.0
14814 H 22.58578468468003 29.935630787745836 6.002973666731791 H 0.0 **** 0.52
14815 H 22.191966982241556 30.99624244746097 4.997039764041013 H 0.0 **** 0.52
14816 M 22.09781935828826 30.192378872824325 5.325526804788112 M 0.0 **** -1.04
14817 O 22.459398060992076 21.70250197889095 29.041552008050484 O 0.0 **** 0.0
14818 H 21.559432157806945 21.561539894697617 28.74757859003012 H 0.0 **** 0.52
14819 H 22.99562622230267 21.515595204455536 28.27099789575198 H 0.0 **** 0.52
14820 M 22.41283512907167 21.660530894412176 28.905278899695823 M 0.0 **** -1.04
14821 O 45.98071012910151 35.335173548260535 24.430674773833864 O 0.0 **** 0.0
14822 H 46.07427423801357 35.00952776595042 23.535449281062967 H 0.0 **** 0.52
14823 H 46.76875928358093 35.85770424663717 24.579565301961303 H 0.0 **** 0.52
14824 M 46.09356786959445 35.36037766117034 24.33513425463781 M 0.0 **** -1.04
14825 O 12.77462067699987 43.17097947189501 25.52519024522576 O 0.0 **** 0.0
14826 H 13.275828946912432 43.51370566243613 24.78521832091593 H 0.0 **** 0.52
14827 H 11.859886634180807 43.26313977562732 25.258735836541625 H 0.0 **** 0.52
14828 M 12.721684014467112 43.22665035842371 25.39635525868082 M 0.0 **** -1.04
14829 O 12.251496234664856 7.7013983654927785 0.11772391649004277 O 0.0 **** 0.0
14830 H 12.09491627249973 6.811507136055766 0.43364285616277903 H 0.0 **** 0.52
14831 H 12.229119314342086 8.243442602338561 0.9063398992881652 H 0.0 **** 0.52
14832 M 12.228587173754306 7.656869950871467 0.2591177358899635 M 0.0 **** -1.04
14833 O 1.0367805032807709 28.880231494666834 29.61898350248846 O 0.0 **** 0.0
14834 H 0.1172702004175985 29.049731974699988 29.41404567912942 H 0.0 **** 0.52
14835 H 1.0679983209978388 28.850455902935188 30.575208685802597 H 0.0 **** 0.52
14836 M 0.9230675469583793 28.8981185657891 29.715157654775304 M 0.0 **** -1.04
14837 O 25.291380132378446 6.845599090670968 25.404866876902535 O 0.0 **** 0.0
14838 H 24.796942414989072 6.479011640527162 24.671808149065072 H 0.0 **** 0.52
14839 H 26.03145939430749 7.293475852639944 24.995088675459883 H 0.0 **** 0.52
14840 M 25.322825384950683 6.856005062228173 25.258569350950655 M 0.0 **** -1.04
14841 O 33.36667560417103 49.22910995234703 15.448320069412782 O 0.0 **** 0.0
14842 H 32.912401448018116 48.65525966641907 14.831423945737834 H 0.0 **** 0.52
14843 H 34.00678185507819 49.698123144708504 14.913045011784748 H 0.0 **** 0.52
14844 M 33.39046417580748 49.21568938942444 15.30082735446949 M 0.0 **** -1.04
14845 O 0.3044811031809828 34.555229836422484 38.184478121766304 O 0.0 **** 0.0
14846 H -0.3289731793608013 35.25811349335387 38.3291140318087 H 0.0 **** 0.52
14847 H 0.23097458348544697 34.354138827772665 37.25153205753911 H 0.0 **** 0.52
14848 M 0.2139809516533966 34.61946558509416 38.083564342092444 M 0.0 **** -1.04
14849 O 42.31157891441316 14.705829693585773 24.369519661550346 O 0.0 **** 0.0
14850 H 41.85459411514435 14.01973091266666 24.85599836229605 H 0.0 **** 0.52
14851 H 42.4822095066327 15.387699403377791 25.019264721496654 H 0.0 **** 0.52
14852 M 42.27492226070578 14.705288769016194 24.514970697327268 M 0.0 **** -1.04
14853 O 1.6570567516104884 49.23797696178565 21.70439212418361 O 0.0 **** 0.0
14854 H 1.3473914619301208 48.677628757550515 20.99281223747466 H 0.0 **** 0.52
14855 H 1.238004223783742 48.883606057314985 22.488639633371715 H 0.0 **** 0.52
14856 M 1.563771524691832 49.12088143905442 21.713693845745443 M 0.0 **** -1.04
14857 O 41.62019175574157 43.161081133439495 10.56337349579951 O 0.0 **** 0.0
14858 H 42.415173477741085 42.70026785416329 10.83148601041701 H 0.0 **** 0.52
14859 H 41.47828137321803 42.88750255115979 9.65714772606055 H 0.0 **** 0.52
14860 M 41.70379308090336 43.067070081089724 10.481687287916628 M 0.0 **** -1.04
14861 O 48.88408734402119 0.5586080833956465 26.07535756174826 O 0.0 **** 0.0
14862 H 49.09617349241856 0.8453790613403691 26.96361910912978 H 0.0 **** 0.52
14863 H 49.317088321611976 -0.29051994820994764 25.98749259662533 H 0.0 **** 0.52
14864 M 48.96666637912741 0.486619136186511 26.177818232698865 M 0.0 **** -1.04
14865 O 21.96007739304601 8.945446677992898 4.590691386241993 O 0.0 **** 0.0
14866 H 21.147173152004417 9.433813908099737 4.460639064184527 H 0.0 **** 0.52
14867 H 21.93082108317253 8.670397482044294 5.507054297180559 H 0.0 **** 0.52
14868 M 21.852269928925146 8.972753613437042 4.691349648349394 M 0.0 **** -1.04
14869 O 14.383000434136974 32.049549641028754 35.98170928651749 O 0.0 **** 0.0
14870 H 15.136376669776268 32.62842204765242 36.09815496461824 H 0.0 **** 0.52
14871 H 14.394251418543448 31.825243234451168 35.0512314345281 H 0.0 **** 0.52
14872 M 14.4808816103901 32.09493891239386 35.877502627880716 M 0.0 **** -1.04
14873 O 10.369004877886113 25.553609080411093 46.68583656990412 O 0.0 **** 0.0
14874 H 10.286395009018143 26.505996935642756 46.73443976094246 H 0.0 **** 0.52
14875 H 11.257721640386151 25.406001359188195 46.36237960604632 H 0.0 **** 0.52
14876 M 10.472197023929958 25.65663099990367 46.65065227617898 M 0.0 **** -1.04
14877 O 26.713624979625898 48.20789979010683 6.165149207180497 O 0.0 **** 0.0
14878 H 26.447771020387467 48.57866770679494 7.00662538435222 H 0.0 **** 0.52
14879 H 27.532011298909534 47.74842000996693 6.353168812781868 H 0.0 **** 0.52
14880 M 26.784356677882414 48.19654375909299 6.2969376162853 M 0.0 **** -1.04
14881 O 41.014248670168804 6.574855041019283 30.40529977582388 O 0.0 **** 0.0
14882 H 41.21738133126846 5.708520280877892 30.052554844900886 H 0.0 **** 0.52
14883 H 40.19216363111942 6.453799366779172 30.880431921050867 H 0.0 **** 0.52
14884 M 40.93501573007763 6.448456302574606 30.42096783014195 M 0.0 **** -1.04
14885 O 40.55263274580034 36.96594730290643 19.741070904449654 O 0.0 **** 0.0
14886 H 40.287430889223266 36.48713678529744 20.526332853424865 H 0.0 **** 0.52
14887 H 39.91374024241922 37.674637600501434 19.66488556359995 H 0.0 **** 0.52
14888 M 40.43689691138881 36.99537477499329 19.831841852674568 M 0.0 **** -1.04
14889 O 46.23557719469249 19.757684008352104 41.42010286936599 O 0.0 **** 0.0
14890 H 46.92969149027089 19.478302237460973 42.01707910169998 H 0.0 **** 0.52
14891 H 46.01936683243251 18.97147476109968 40.91874868005525 H 0.0 **** 0.52
14892 M 46.296755338174584 19.62127544243187 41.4323442000402 M 0.0 **** -1.04
14893 O 8.87451646980162 4.001422550911856 18.05280953496083 O 0.0 **** 0.0
14894 H 8.16681890736399 3.960193450486567 18.695999088382834 H 0.0 **** 0.52
14895 H 9.650050120520213 4.233040176526124 18.563818378972513 H 0.0 **** 0.52
14896 M 8.88320006866654 4.0257952375645605 18.2005613893962 M 0.0 **** -1.04
14897 O 44.73396233256443 20.503562290321785 14.148345303334892 O 0.0 **** 0.0
14898 H 44.70626501550581 21.365958944734746 14.562753805263185 H 0.0 **** 0.52
14899 H 44.15761905404091 19.960358832453796 14.685920299188837 H 0.0 **** 0.52
14900 M 44.656637438955016 20.544423863223017 14.27021097658762 M 0.0 **** -1.04
14901 O 5.5887285539473694 17.57298316392411 12.588410466457258 O 0.0 **** 0.0
14902 H 6.1655110904481845 18.295768502048414 12.34116113173492 H 0.0 **** 0.52
14903 H 5.709651597834274 16.92215211525544 11.897017712542825 H 0.0 **** 0.52
14904 M 5.6780441295729815 17.58219415335771 12.468252947931237 M 0.0 **** -1.04
14905 O 44.34543798503458 39.602732345249976 27.182523234432818 O 0.0 **** 0.0
14906 H 44.79327928260338 39.74100672608892 26.347928532457306 H 0.0 **** 0.52
14907 H 43.522334942585246 40.083566058102484 27.09575758425228 H 0.0 **** 0.52
14908 M 44.29740054769002 39.681986250459545 27.064577220140674 M 0.0 **** -1.04
14909 O 41.48742922878411 38.716327061015214 47.153521982934556 O 0.0 **** 0.0
14910 H 41.20097055929717 37.89197248788322 46.76031912800338 H 0.0 **** 0.52
14911 H 40.703336746859364 39.06528610790647 47.57737945321519 H 0.0 **** 0.52
14912 M 41.3503849583135 38.65547096711472 47.15744659862922 M 0.0 **** -1.04
14913 O 47.496391601274105 23.17928297450025 28.5900428154669 O 0.0 **** 0.0
14914 H 46.72703158607702 22.933172100316987 28.076482400428873 H 0.0 **** 0.52
14915 H 48.18273900157823 22.580276484697283 28.29619636312819 H 0.0 **** 0.52
14916 M 47.48576426289828 23.07109781158274 28.486684954200484 M 0.0 **** -1.04
14917 O 43.851743389024 22.39108725871527 43.46440545495279 O 0.0 **** 0.0
14918 H 43.0583684986024 21.900936638232896 43.248680313824 H 0.0 **** 0.52
14919 H 43.53307041469985 23.19471954494322 43.87532039443811 H 0.0 **** 0.52
14920 M 43.709387819875474 22.431216172726227 43.48939264538495 M 0.0 **** -1.04
14921 O 46.80573937038029 1.4774375523368093 16.188761857971116 O 0.0 **** 0.0
14922 H 47.31488024786097 2.2817264771992 16.28938089273032 H 0.0 **** 0.52
14923 H 46.028187490520374 1.745310068772973 15.698980908651464 H 0.0 **** 0.52
14924 M 46.77137998732124 1.6146876984332863 16.138944487423316 M 0.0 **** -1.04
14925 O 45.896684345348675 49.93144877800992 42.92894111548658 O 0.0 **** 0.0
14926 H 45.41287886202022 50.61329302826639 42.462840864055124 H 0.0 **** 0.52
14927 H 46.086437680225515 49.27259245373194 42.26101022685214 H 0.0 **** 0.52
14928 M 45.859041394652884 49.93439109213322 42.78377051394648 M 0.0 **** -1.04
14929 O 23.631478392796954 2.67622364014845 8.903827497773094 O 0.0 **** 0.0
14930 H 23.385153933597326 3.4330003160282416 9.435657482699224 H 0.0 **** 0.52
14931 H 24.345635581522632 2.9935611415482484 8.35110174326374 H 0.0 **** 0.52
14932 M 23.691367132675566 2.813723759386498 8.901152715860457 M 0.0 **** -1.04
14933 O 7.884956359818148 13.618838431934389 45.48493284384801 O 0.0 **** 0.0
14934 H 7.348365938249238 13.484274439905397 44.703784453404595 H 0.0 **** 0.52
14935 H 8.224347230454136 12.749003509244094 45.695716358210326 H 0.0 **** 0.52
14936 M 7.85971261660341 13.490263036345283 45.41191873642619 M 0.0 **** -1.04
14937 O 13.552514949431663 29.320469329877046 5.550223733678095 O 0.0 **** 0.0
14938 H 13.333787663091949 30.174770986391398 5.922455412794932 H 0.0 **** 0.52
14939 H 13.68805316523269 28.75499172514306 6.310548401506004 H 0.0 **** 0.52
14940 M 13.541865492071539 29.35744185764879 5.695204919002606 M 0.0 **** -1.04
14941 O 39.824783125081524 35.798460394264346 28.60349840306063 O 0.0 **** 0.0
14942 H 38.96584635496648 35.398454159094335 28.739331489127373 H 0.0 **** 0.52
14943 H 40.23144719399541 35.793760020582624 29.470003596217964 H 0.0 **** 0.52
14944 M 39.76688676153727 35.74665294296499 28.73181055854177 M 0.0 **** -1.04
14945 O 6.910085261720198 49.8993919114417 21.485426764951054 O 0.0 **** 0.0
14946 H 7.3032298660356645 49.97676927314624 22.35472503679679 H 0.0 **** 0.52
14947 H 5.966755098417622 49.899616427542746 21.64777579890495 H 0.0 **** 0.52
14948 M 6.83965506077746 49.90932569006257 21.617490048752675 M 0.0 **** -1.04
14949 O 0.6495145975237981 40.41637067952945 10.554524699446315 O 0.0 **** 0.0
14950 H -0.12805567680580054 40.67967841215715 10.06230299519128 H 0.0 **** 0.52
14951 H 0.7768751118707853 39.49529374525345 10.32730884834598 H 0.0 **** 0.52
14952 M 0.5662796728384846 40.33216788253863 10.462427505045186 M 0.0 **** -1.04
14953 O 2.3812475959962347 45.2747047178555 18.23988422178918 O 0.0 **** 0.0
14954 H 1.8765280387269692 44.52159310017925 17.93278273430004 H 0.0 **** 0.52
14955 H 1.7279658043793904 45.95986323520055 18.381339614052894 H 0.0 **** 0.52
14956 M 2.2330083756795283 45.266005364530315 18.2186795497422 M 0.0 **** -1.04
14957 O 20.29312314488492 33.4104536229586 48.90660147786577 O 0.0 **** 0.0
14958 H 21.056355449556513 32.846987323051614 48.77927427950303 H 0.0 **** 0.52
14959 H 20.327618255041813 33.65594653262373 49.831140035581726 H 0.0 **** 0.52
14960 M 20.395242906315794 33.36974912456557 49.00865453209665 M 0.0 **** -1.04
14961 O 28.591571442302566 27.391212279982646 40.11428191999896 O 0.0 **** 0.0
14962 H 29.1831666763698 27.917976085364803 39.57691535333806 H 0.0 **** 0.52
14963 H 27.75830861978775 27.41080537627261 39.64362493966817 H 0.0 **** 0.52
14964 M 28.560635351628648 27.461153080545948 39.98524260952974 M 0.0 **** -1.04
14965 O 12.72489262574727 10.714439491674419 38.29723178492386 O 0.0 **** 0.0
14966 H 12.605130049885737 11.509402448159278 37.777694192200535 H 0.0 **** 0.52
14967 H 11.862811222617264 10.543425098353836 38.676440613188035 H 0.0 **** 0.52
14968 M 12.599204798584237 10.794312488008948 38.27926819328408 M 0.0 **** -1.04
14969 O 35.95320224458465 6.727703502802804 16.043994164885547 O 0.0 **** 0.0
14970 H 35.75223720568593 5.939629557475065 16.548752467362235 H 0.0 **** 0.52
14971 H 36.3136522031627 7.338816779946647 16.686524289632814 H 0.0 **** 0.52
14972 M 35.97361803346676 6.705050247822584 16.19086142122653 M 0.0 **** -1.04
14973 O 12.258626284109857 10.590422719063312 19.039256043172912 O 0.0 **** 0.0
14974 H 12.413628959584468 10.022533284203718 19.794044904762515 H 0.0 **** 0.52
14975 H 11.309166136968093 10.710368941902587 19.020134642849882 H 0.0 **** 0.52
14976 M 12.156925481990944 10.533080215003679 19.133430616097584 M 0.0 **** -1.04
14977 O 8.41009758708169 37.22858360003213 40.17959286272429 O 0.0 **** 0.0
14978 H 8.201891205382037 37.44826699813392 39.27150823059476 H 0.0 **** 0.52
14979 H 9.048332765285437 37.89021662425783 40.44628923102539 H 0.0 **** 0.52
14980 M 8.465147001140808 37.341403750431674 40.0974873699874 M 0.0 **** -1.04
14981 O 14.638701747892206 39.63851299620892 45.22375258856678 O 0.0 **** 0.0
14982 H 14.493332815715533 40.57807199341491 45.33477146960497 H 0.0 **** 0.52
14983 H 13.776639986193011 39.244767349314316 45.3580728838223 H 0.0 **** 0.52
14984 M 14.509737895842306 39.70838368286692 45.25515853646499 M 0.0 **** -1.04
14985 O 45.938898703433736 22.584776377145495 41.80380079095947 O 0.0 **** 0.0
14986 H 45.8235272760261 21.69585857314259 41.468030351208675 H 0.0 **** 0.52
14987 H 45.32389137749442 22.646961978510443 42.53464104371428 H 0.0 **** 0.52
14988 M 45.84540094510832 22.47894482815276 41.854374825433105 M 0.0 **** -1.04
14989 O 27.56506896753092 37.95029720424678 46.59802054602606 O 0.0 **** 0.0
14990 H 27.63509142667375 38.06330072811873 47.54594224764151 H 0.0 **** 0.52
14991 H 26.649522589585743 38.14710089196274 46.39985100351444 H 0.0 **** 0.52
14992 M 27.456831847397638 37.98995634614154 46.69399783477936 M 0.0 **** -1.04
14993 O 5.546184405747686 32.003424196264554 33.78803385992642 O 0.0 **** 0.0
14994 H 5.966178864441488 32.204115604189916 32.95163927449869 H 0.0 **** 0.52
14995 H 6.095205690739018 31.321302125082187 34.17470346324913 H 0.0 **** 0.52
14996 M 5.670231031713406 31.941795150277418 33.73046346957495 M 0.0 **** -1.04
14997 O 47.535037583177264 11.940257252268395 6.508299815118036 O 0.0 **** 0.0
14998 H 48.08075454112023 11.462827684397162 7.1331859207305115 H 0.0 **** 0.52
14999 H 47.16850631882617 11.261188028616012 5.9419528933959285 H 0.0 **** 0.52
15000 M 47.55797553392909 11.792210905634072 6.515792788129829 M 0.0 **** -1.04
15001 O 10.586969108229628 19.300250664115467 47.54567216892254 O 0.0 **** 0.0
15002 H 10.495110760435432 18.690627030140547 46.8134493121044 H 0.0 **** 0.52
15003 H 11.53121626616253 19.431532113909128 47.63164035061732 H 0.0 **** 0.52
15004 M 10.696085055524206 19.239016846791287 47.46294349274013 M 0.0 **** -1.04
15005 O 11.827998150954526 10.784160423732416 1.5084755231420601 O 0.0 **** 0.0
15006 H 12.672104870159872 11.201221823546632 1.6810243000317584 H 0.0 **** 0.52
15007 H 11.203284666694937 11.508891015823735 1.4815236245087533 H 0.0 **** 0.52
15008 M 11.85608379195624 10.930323593953489 1.527113365035369 M 0.0 **** -1.04
15009 O 49.52818221675254 16.787673141410266 32.291034586859126 O 0.0 **** 0.0
15010 H 49.56339378627276 16.444816058108415 33.1840283418491 H 0.0 **** 0.52
15011 H 48.86230489526218 17.474525985596586 32.32375692195917 H 0.0 **** 0.52
15012 M 49.447448658730835 16.831708594532458 32.40953741711843 M 0.0 **** -1.04
15013 O 28.051808563966844 29.7628396934643 26.160562060354355 O 0.0 **** 0.0
15014 H 28.58128321910047 30.05383514974865 25.41812924484178 H 0.0 **** 0.52
15015 H 28.434769589561142 28.92296533682549 26.413900306176508 H 0.0 **** 0.52
15016 M 28.168611420118808 29.692576150217775 26.097951838391722 M 0.0 **** -1.04
15017 O 43.85949037666419 36.30471799131137 40.988977893741264 O 0.0 **** 0.0
15018 H 43.20323334932429 36.93042347595321 41.295649477906295 H 0.0 **** 0.52
15019 H 43.45478349766618 35.44763459409924 41.12258026896411 H 0.0 **** 0.52
15020 M 43.7236735608712 36.275098625603654 41.04533886735714 M 0.0 **** -1.04
15021 O 15.876671596528944 2.0879252975379643 42.3228870032722 O 0.0 **** 0.0
15022 H 16.564465549776767 1.522491108858297 42.67424355696352 H 0.0 **** 0.52
15023 H 15.34796570191638 1.5095140212202907 41.77321456985713 H 0.0 **** 0.52
15024 M 15.897036683383826 1.9414981817643024 42.297499757308984 M 0.0 **** -1.04
15025 O 13.35078846029226 16.61871629076 15.229434507467683 O 0.0 **** 0.0
15026 H 14.109172616923093 17.17684819566816 15.0574718133574 H 0.0 **** 0.52
15027 H 12.664146343091328 17.225433271477783 15.506284907323378 H 0.0 **** 0.52
15028 M 13.359972072904934 16.76783162853333 15.242861265570182 M 0.0 **** -1.04
15029 O 19.437474440498473 25.690497287881502 3.1389679337808047 O 0.0 **** 0.0
15030 H 20.374041010031103 25.851772769927056 3.024679120776824 H 0.0 **** 0.52
15031 H 19.18477150403638 26.252632618794557 3.8713442774987783 H 0.0 **** 0.52
15032 M 19.525018072639813 25.78310355522422 3.218090485896809 M 0.0 **** -1.04
15033 O 12.50146999004709 16.254513839784696 45.89710178690133 O 0.0 **** 0.0
15034 H 11.89938474745131 16.49187345447289 46.60235469234489 H 0.0 **** 0.52
15035 H 12.564546915318457 15.30066151948057 45.94625613664655 H 0.0 **** 0.52
15036 M 12.432470552861707 16.162793210501132 45.99367587621068 M 0.0 **** -1.04
15037 O 1.2805919639256516 46.77501493739096 7.091307393584785 O 0.0 **** 0.0
15038 H 1.234142223915157 45.85772186856293 7.360835429587809 H 0.0 **** 0.52
15039 H 0.5578927609809625 46.880231355522874 6.472546273293403 H 0.0 **** 0.52
15040 M 1.1821311803866053 46.671058613585394 7.04660102509326 M 0.0 **** -1.04
15041 O 3.30442882499527 49.24872771185328 40.16572759179282 O 0.0 **** 0.0
15042 H 2.6500669161291626 49.50587208577572 39.51617663030105 H 0.0 **** 0.52
15043 H 4.0293265163594825 48.89615906734182 39.6495417491819 H 0.0 **** 0.52
15044 M 3.3134584877421673 49.23651213922853 40.01649835606429 M 0.0 **** -1.04
15045 O 40.53496697700809 36.10475815412231 0.5828324875241807 O 0.0 **** 0.0
15046 H 41.38858274510737 36.51070695050512 0.7337447532706779 H 0.0 **** 0.52
15047 H 40.70623424008876 35.163858652749695 0.6228768844696614 H 0.0 **** 0.52
15048 M 40.66616478032114 36.03627865840665 0.6072773252279037 M 0.0 **** -1.04
15049 O 31.19139809404525 18.631226125346302 21.334286550963284 O 0.0 **** 0.0
15050 H 31.71164123540452 19.032020569791158 22.030663039427186 H 0.0 **** 0.52
15051 H 31.04223284166599 19.339664397327482 20.70811196988505 H 0.0 **** 0.52
15052 M 31.23890099346047 18.77322183990259 21.34327350282632 M 0.0 **** -1.04
15053 O 45.94555206013098 28.035510526516937 2.3552760568280844 O 0.0 **** 0.0
15054 H 45.22829258268587 27.41022057357761 2.2514504577990424 H 0.0 **** 0.52
15055 H 45.55837172257051 28.883259217834215 2.1370054121644917 H 0.0 **** 0.52
15056 M 45.80416948346908 28.063987808818975 2.314043509112526 M 0.0 **** -1.04
15057 O 12.84875584742129 7.7278493068767276 2.83294439908245 O 0.0 **** 0.0
15058 H 12.894393683138068 7.238041983542229 3.6540622182922746 H 0.0 **** 0.52
15059 H 12.331713065594691 8.50486368400427 3.0454180218783975 H 0.0 **** 0.52
15060 M 12.788409674746624 7.7646158372752065 2.965256561063022 M 0.0 **** -1.04
15061 O 17.306714577904202 8.090297472475484 19.013030865079934 O 0.0 **** 0.0
15062 H 16.56968962984172 8.685920464359285 19.148146452261972 H 0.0 **** 0.52
15063 H 16.92276612952824 7.215621628281923 19.074307800582883 H 0.0 **** 0.52
15064 M 17.163215699138334 8.054575581632477 19.038171518642127 M 0.0 **** -1.04
15065 O 20.241642181927116 34.54393082146971 32.08183422516951 O 0.0 **** 0.0
15066 H 20.68012322332772 34.76738438747101 32.90282787699574 H 0.0 **** 0.52
15067 H 19.66906401953558 35.29026082879872 31.90470307977712 H 0.0 **** 0.52
15068 M 20.22447583071514 34.66807493439897 32.164256839469736 M 0.0 **** -1.04
15069 O 8.760097253634697 49.15733747388416 44.58323227273852 O 0.0 **** 0.0
15070 H 8.274740690803 49.934229758469776 44.30557259706984 H 0.0 **** 0.52
15071 H 8.08341743479032 48.52879025008021 44.83474798832699 H 0.0 **** 0.52
15072 M 8.611342014432537 49.17632767902831 44.579884989139636 M 0.0 **** -1.04
15073 O 40.172849611607575 41.307754620563855 40.67562356524854 O 0.0 **** 0.0
15074 H 39.88391450269072 40.42566036667899 40.90940664358207 H 0.0 **** 0.52
15075 H 39.782966399806575 41.87269717904119 41.34275273035709 H 0.0 **** 0.52
15076 M 40.08595269432474 41.26715543065916 40.79095128104937 M 0.0 **** -1.04
15077 O 48.056049238421274 2.4991034097275273 46.41180049703107 O 0.0 **** 0.0
15078 H 48.07014868548883 1.6778697467776056 45.92026584145257 H 0.0 **** 0.52
15079 H 47.781038595279114 2.2465732655354427 47.29317773561128 H 0.0 **** 0.52
15080 M 48.022649150914745 2.361647640735508 46.46170560673316 M 0.0 **** -1.04
15081 O 40.532431490995215 10.887014981118847 18.558622483960196 O 0.0 **** 0.0
15082 H 40.8647328357028 11.56830710015374 19.143127881104967 H 0.0 **** 0.52
15083 H 40.830184977544626 11.151393030573795 17.688176745326274 H 0.0 **** 0.52
15084 M 40.61308593557037 11.00807274668647 18.522018648764348 M 0.0 **** -1.04
15085 O 21.39408819374028 11.583722385826555 8.516780557234469 O 0.0 **** 0.0
15086 H 21.53645419512634 11.260192250204138 9.406325056711893 H 0.0 **** 0.52
15087 H 20.446515184849385 11.532336494978964 8.391502714603405 H 0.0 **** 0.52
15088 M 21.29101166653221 11.535727943432589 8.614616759082338 M 0.0 **** -1.04
15089 O 47.804439675573825 32.14608431915488 28.943921382187394 O 0.0 **** 0.0
15090 H 47.44635314670334 32.873562237213164 28.43521784532955 H 0.0 **** 0.52
15091 H 47.06578990383028 31.548684306565164 29.061127612647386 H 0.0 **** 0.52
15092 M 47.66404345349188 32.16273622247775 28.89380454262391 M 0.0 **** -1.04
15093 O 39.967806108127036 39.86844719512389 25.83142321233568 O 0.0 **** 0.0
15094 H 39.66978336837299 39.24162604769448 26.490594595562495 H 0.0 **** 0.52
15095 H 39.19460443276273 40.39818743065962 25.637092434838205 H 0.0 **** 0.52
15096 M 39.83067570001405 39.8560201307425 25.8909280980816 M 0.0 **** -1.04
15097 O 20.24140739048827 27.075272440258328 40.73909437261554 O 0.0 **** 0.0
15098 H 20.276177934592365 27.450423879178256 39.85916158572332 H 0.0 **** 0.52
15099 H 19.306697983212736 27.000214716632577 40.93122227077878 H 0.0 **** 0.52
15100 M 20.126204016712048 27.1136878796565 40.65104679910883 M 0.0 **** -1.04
15101 O 27.72414346796473 26.331813371195807 46.38197537770081 O 0.0 **** 0.0
15102 H 26.997034025909564 26.943921443904255 46.49540063066719 H 0.0 **** 0.52
15103 H 27.8779522405958 25.976980441536853 47.25756914166985 H 0.0 **** 0.52
15104 M 27.6507534085796 26.36474744376348 46.508582634935756 M 0.0 **** -1.04
15105 O 25.81724136477515 33.36893952736627 40.49145005507652 O 0.0 **** 0.0
15106 H 25.31391923941274 33.59960128744431 39.71062310570013 H 0.0 **** 0.52
15107 H 26.355159680185302 34.140991807318166 40.66697522458923 H 0.0 **** 0.52
15108 M 25.82166959810565 33.49729978008393 40.41396377747312 M 0.0 **** -1.04
15109 O 45.44294470428216 17.509341045826936 19.594850380371867 O 0.0 **** 0.0
15110 H 45.340041891088006 16.63761772912534 19.97660545499636 H 0.0 **** 0.52
15111 H 46.07858770479968 17.946109067892138 20.161790196504413 H 0.0 **** 0.52
15112 M 45.51114231356784 17.453661868677713 19.716295560715537 M 0.0 **** -1.04
15113 O 31.342317729868725 33.009996907930365 42.825452904586434 O 0.0 **** 0.0
15114 H 30.684329345226626 33.26447541035231 42.17852030953492 H 0.0 **** 0.52
15115 H 32.15198210649819 32.922190915558936 42.322499056264526 H 0.0 **** 0.52
15116 M 31.36173437760188 33.03133237050896 42.67825250772433 M 0.0 **** -1.04
15117 O 25.847524621202766 28.756284655919117 25.093724732088873 O 0.0 **** 0.0
15118 H 26.705888153114262 28.997466944886977 25.441965638642912 H 0.0 **** 0.52
15119 H 25.293770610482184 28.656528082374145 25.868085549279655 H 0.0 **** 0.52
15120 M 25.886517791030467 28.774389328392083 25.237432038971406 M 0.0 **** -1.04
15121 O 6.795854452796584 36.67242132597701 28.956271874381812 O 0.0 **** 0.0
15122 H 7.670799884624119 36.46948580186904 28.62533711903526 H 0.0 **** 0.52
15123 H 6.479067535556216 35.845592987621444 29.319905344874623 H 0.0 **** 0.52
15124 M 6.8673058620016745 36.54059899956871 28.960458096415127 M 0.0 **** -1.04
15125 O 49.174839374866536 40.172236136510314 16.605039851370016 O 0.0 **** 0.0
15126 H 48.53011905336366 39.90375915572975 17.25962644381265 H 0.0 **** 0.52
15127 H 48.66312566716411 40.629162961703045 15.937510201417147 H 0.0 **** 0.52
15128 M 49.026802030482756 40.19636006856437 16.60338280910762 M 0.0 **** -1.04
15129 O 42.680000093754174 40.050198642714406 12.45169036350859 O 0.0 **** 0.0
15130 H 43.27096969600947 39.654040450232145 13.092035846251909 H 0.0 **** 0.52
15131 H 42.558871532968766 40.948159137870746 12.760274002765456 H 0.0 **** 0.52
15132 M 42.74014569624979 40.11443589435581 12.573165986347119 M 0.0 **** -1.04
15133 O 16.857392081937636 42.54507216748351 27.991914910729502 O 0.0 **** 0.0
15134 H 16.989434871390003 41.60596556070184 28.121809433011244 H 0.0 **** 0.52
15135 H 15.92958653125201 42.68537343126529 28.180917687911027 H 0.0 **** 0.52
15136 M 16.755524566131474 42.442814243909744 28.0327374433174 M 0.0 **** -1.04
15137 O 32.63457241643754 29.615148396686052 37.90636555876987 O 0.0 **** 0.0
15138 H 33.41723114554775 30.123519280703732 38.119045906719556 H 0.0 **** 0.52
15139 H 32.1930746446581 30.12663089320634 37.22835852293581 H 0.0 **** 0.52
15140 M 32.67824546925783 29.74570238059358 37.84679776601898 M 0.0 **** -1.04
15141 O 13.740253981634643 31.467592905185192 33.470811899807224 O 0.0 **** 0.0
15142 H 14.101429495564046 30.628526696093505 33.18489434314485 H 0.0 **** 0.52
15143 H 12.810310616986083 31.416358864281953 33.24988496769326 H 0.0 **** 0.52
15144 M 13.66744450683708 31.353623361121493 33.40592936397033 M 0.0 **** -1.04
15145 O 35.2276106380303 25.904360283428577 38.18344173655418 O 0.0 **** 0.0
15146 H 35.69549269634154 26.45926850421731 38.80745491803582 H 0.0 **** 0.52
15147 H 34.45866330051213 25.598088905820756 38.66421811662422 H 0.0 **** 0.52
15148 M 35.189070798275644 25.936188683384064 38.32486902866206 M 0.0 **** -1.04
15149 O 43.44666187474098 40.22193623962913 48.016147887720784 O 0.0 **** 0.0
15150 H 43.33092099845671 41.07357714189575 47.59479187815671 H 0.0 **** 0.52
15151 H 42.59671441481992 39.79133716413982 47.92447991552332 H 0.0 **** 0.52
15152 M 43.32304121326128 40.27583524940221 47.95047379598128 M 0.0 **** -1.04
15153 O 24.713235197547107 11.470157210674884 36.721690372377594 O 0.0 **** 0.0
15154 H 25.04518215065488 10.761678063230825 37.27314088803452 H 0.0 **** 0.52
15155 H 23.85171926830445 11.167387154592475 36.434724265089805 H 0.0 **** 0.52
15156 M 24.645444013934295 11.34070471060285 36.75554838517327 M 0.0 **** -1.04
15157 O 5.196481611681946 41.23714614938195 37.88418554886044 O 0.0 **** 0.0
15158 H 5.180470042966753 40.47528312525343 38.463441660050684 H 0.0 **** 0.52
15159 H 5.844814561726331 41.822587314782375 38.27552991697319 H 0.0 **** 0.52
15160 M 5.277426332233908 41.214561658887476 38.00843416560073 M 0.0 **** -1.04
15161 O 44.0375522403201 30.821603625851466 27.25987151912546 O 0.0 **** 0.0
15162 H 44.54821821999494 30.389106107803936 27.94426524976579 H 0.0 **** 0.52
15163 H 44.62525997559408 30.8520787204327 26.504954543506468 H 0.0 **** 0.52
15164 M 44.17815748727943 30.770139253515495 27.25084417419015 M 0.0 **** -1.04
15165 O 2.0290860765378227 3.7137085796576135 19.569270769817795 O 0.0 **** 0.0
15166 H 1.1427297406171348 3.717882247699631 19.930633882962475 H 0.0 **** 0.52
15167 H 2.510879864159648 3.098790914506015 20.1224255092848 H 0.0 **** 0.52
15168 M 1.977297046308415 3.635525277778174 19.686340915871813 M 0.0 **** -1.04
15169 O 19.582262554249226 40.75475040686431 42.173668087261376 O 0.0 **** 0.0
15170 H 20.030097762083955 41.53416022972337 41.84474201139814 H 0.0 **** 0.52
15171 H 20.083407518112963 40.49885262569223 42.948004646737665 H 0.0 **** 0.52
15172 M 19.703743347407368 40.82176636251175 42.23068667145405 M 0.0 **** -1.04
15173 O 47.244104726356184 31.612579420584655 23.012386737376932 O 0.0 **** 0.0
15174 H 46.96348529042144 31.375018119282856 23.8961552678088 H 0.0 **** 0.52
15175 H 46.55695778339549 32.19645080593229 22.691216443381283 H 0.0 **** 0.52
15176 M 47.120218955030964 31.656911031577316 23.084406608092987 M 0.0 **** -1.04
15177 O 18.789973357738543 12.345915233416811 7.8224398379644455 O 0.0 **** 0.0
15178 H 19.08650458823727 12.549611275453973 6.935418606192585 H 0.0 **** 0.52
15179 H 17.87935406149134 12.071610130471385 7.714005485427497 H 0.0 **** 0.52
15180 M 18.71136262006071 12.336875876157098 7.6950090436050225 M 0.0 **** -1.04
15181 O 31.571674400976303 49.25497845006924 34.85293511986231 O 0.0 **** 0.0
15182 H 31.84134685921032 49.844311860578294 34.14852693471047 H 0.0 **** 0.52
15183 H 31.4242007796861 48.41444188035213 34.41937011748218 H 0.0 **** 0.52
15184 M 31.587317969312704 49.22282096937344 34.707260441860235 M 0.0 **** -1.04
15185 O 40.37625653942231 17.00432647826635 23.331709144556747 O 0.0 **** 0.0
15186 H 40.082319005158396 16.142321476995612 23.626288153765564 H 0.0 **** 0.52
15187 H 39.83562491491874 17.193049439251226 22.564682447141912 H 0.0 **** 0.52
15188 M 40.269421603702234 16.918138080807026 23.27123020898335 M 0.0 **** -1.04
15189 O 41.61320451606486 42.89956705153937 7.82172996642845 O 0.0 **** 0.0
15190 H 41.03219450869483 42.775525702492814 7.071217171365845 H 0.0 **** 0.52
15191 H 42.334604176923655 42.28893864454977 7.670260278489735 H 0.0 **** 0.52
15192 M 41.63117629143804 42.80551988725842 7.706264926188339 M 0.0 **** -1.04
15193 O 4.792947123366886 34.467713216281595 10.623888607935633 O 0.0 **** 0.0
15194 H 5.579557456152756 34.10933892177651 10.212743027623356 H 0.0 **** 0.52
15195 H 4.18884057497003 34.61712781940668 9.896593540871498 H 0.0 **** 0.52
15196 M 4.8163095974465335 34.4409637206293 10.478154008820589 M 0.0 **** -1.04
15197 O 30.381722114836077 49.99724560212509 12.479751257214168 O 0.0 **** 0.0
15198 H 29.67973724769975 50.64301998877467 12.559876230277025 H 0.0 **** 0.52
15199 H 29.927889199691315 49.16315980540952 12.359061719432665 H 0.0 **** 0.52
15200 M 30.233763015703158 49.97313874047744 12.474558839544192 M 0.0 **** -1.04
15201 O 10.6103095490231 36.74947562837656 2.511402932397779 O 0.0 **** 0.0
15202 H 10.195948407472201 37.309656255227424 3.167704465606711 H 0.0 **** 0.52
15203 H 9.91239928105702 36.55666759544437 1.8853235936282502 H 0.0 **** 0.52
15204 M 10.467924951373455 36.79650391601939 2.5152713971517997 M 0.0 **** -1.04
15205 O 5.116978944300984 42.335522484579684 26.15547019918145 O 0.0 **** 0.0
15206 H 4.9618150482133325 41.74967909851799 25.41456437052806 H 0.0 **** 0.52
15207 H 4.496254030906237 42.046257064750094 26.82424126773017 H 0.0 **** 0.52
15208 M 5.017655094692121 42.22349735937266 26.14623530323061 M 0.0 **** -1.04
15209 O 14.070379056741046 29.74632943536633 28.415363650920234 O 0.0 **** 0.0
15210 H 13.342858395409039 29.655751034527896 27.799947507035107 H 0.0 **** 0.52
15211 H 14.814811230460066 29.34417929314182 27.967787370102528 H 0.0 **** 0.52
15212 M 14.072543293243228 29.683254253817385 28.279287315983098 M 0.0 **** -1.04
15213 O 44.236506599605924 35.819637043524985 27.877676166359326 O 0.0 **** 0.0
15214 H 43.93446860512023 36.39253969075217 27.172846600127958 H 0.0 **** 0.52
15215 H 43.62130863091766 35.08634455729268 27.871186017606718 H 0.0 **** 0.52
15216 M 44.11908838436258 35.799105310500266 27.78661855821446 M 0.0 **** -1.04
15217 O 27.248896019607216 42.02857680819608 36.35823917746515 O 0.0 **** 0.0
15218 H 27.47121041770642 41.185732607598126 36.75373703430563 H 0.0 **** 0.52
15219 H 27.529015439558247 41.947219284169165 35.44656835535021 H 0.0 **** 0.52
15220 M 27.313213409872446 41.91026718376258 36.292162438752655 M 0.0 **** -1.04
15221 O 22.388308477820292 35.982097871411455 33.83011295422799 O 0.0 **** 0.0
15222 H 22.97297023872593 35.28251241516397 34.12162325511115 H 0.0 **** 0.52
15223 H 22.701048554885123 36.20665795512486 32.95375930882085 H 0.0 **** 0.52
15224 M 22.503186931932262 35.92128859600863 33.75524617769921 M 0.0 **** -1.04
15225 O 28.84972529080995 34.678010676885236 43.902234791248326 O 0.0 **** 0.0
15226 H 28.79294728054742 34.95559462291915 42.98793074660749 H 0.0 **** 0.52
15227 H 29.661985973482363 34.173846333062414 43.94997822644063 H 0.0 **** 0.52
15228 M 28.946436492847035 34.64900537540674 43.791304506494 M 0.0 **** -1.04
15229 O 45.43522120785599 30.45164348005426 29.58712602274852 O 0.0 **** 0.0
15230 H 44.975469143385375 31.206440382459277 29.95473698046592 H 0.0 **** 0.52
15231 H 45.82421277486391 30.01512841177616 30.344996687129324 H 0.0 **** 0.52
15232 M 45.42616281366279 30.492387084746753 29.731201327059516 M 0.0 **** -1.04
15233 O 7.732815225049989 33.37867393325113 46.49066713371006 O 0.0 **** 0.0
15234 H 8.381890246218617 33.40695246050807 45.787723170480156 H 0.0 **** 0.52
15235 H 6.893961164050165 33.50780105956765 46.048085871133814 H 0.0 **** 0.52
15236 M 7.708520487565244 33.39882305275918 46.344025093402365 M 0.0 **** -1.04
15237 O 30.993769118541987 30.24521417721213 25.124156623997113 O 0.0 **** 0.0
15238 H 31.555059655149435 29.697752672146272 24.575097078236453 H 0.0 **** 0.52
15239 H 30.623579630628374 30.889951160224825 24.521245228302114 H 0.0 **** 0.52
15240 M 31.018232139899666 30.25766734003383 24.97668987706145 M 0.0 **** -1.04
15241 O 20.09432148641268 16.01852876849401 33.909858452223745 O 0.0 **** 0.0
15242 H 20.03809644190224 16.971779468208066 33.97603752763287 H 0.0 **** 0.52
15243 H 19.560694548940333 15.695661224315916 34.635963119574 H 0.0 **** 0.52
15244 M 20.01881253558693 16.099226127768727 34.011280625027666 M 0.0 **** -1.04
15245 O 14.105208511027385 28.138021513856664 18.046827042963695 O 0.0 **** 0.0
15246 H 13.493890570219165 28.60462139133837 18.61674224730448 H 0.0 **** 0.52
15247 H 14.642245919682054 28.827083635907417 17.655657722149627 H 0.0 **** 0.52
15248 M 14.095699682493972 28.2859611084542 18.069708979382124 M 0.0 **** -1.04
15249 O 25.2997872874389 3.886214651543096 7.337292944615285 O 0.0 **** 0.0
15250 H 25.459387128126618 4.139890526760796 6.428225082181129 H 0.0 **** 0.52
15251 H 25.590729790753127 4.639480919204239 7.851268504833584 H 0.0 **** 0.52
15252 M 25.357462332737587 4.015115652340825 7.28671636180141 M 0.0 **** -1.04
15253 O 37.89173632791966 10.897420890477132 17.66852936246208 O 0.0 **** 0.0
15254 H 37.60447071377087 10.82591607960335 18.57880127067894 H 0.0 **** 0.52
15255 H 38.720399824987844 11.374257669432941 17.715135536773175 H 0.0 **** 0.52
15256 M 37.96104180277811 10.949308339239858 17.791021622317736 M 0.0 **** -1.04
15257 O 8.764386535897101 35.541784069442315 0.6558748948990033 O 0.0 **** 0.0
15258 H 8.191461321170614 35.310641274550605 1.387009956869555 H 0.0 **** 0.52
15259 H 8.660577483885488 34.82248164560039 0.032933079572722734 H 0.0 **** 0.52
15260 M 8.677756607862566 35.420115135914386 0.6697255527865943 M 0.0 **** -1.04
15261 O 36.21911711392414 49.19539196743243 12.097837405609777 O 0.0 **** 0.0
15262 H 36.65969039527066 48.73018709503288 12.80896946853278 H 0.0 **** 0.52
15263 H 36.6560838191713 48.88858509865908 11.303382977147216 H 0.0 **** 0.52
15264 M 36.331453861997396 49.09656465634972 12.087170906817565 M 0.0 **** -1.04
15265 O 21.98723149000284 31.76325263231709 27.80005188060198 O 0.0 **** 0.0
15266 H 22.92093801280221 31.564128131289593 27.869123149542915 H 0.0 **** 0.52
15267 H 21.554273370583786 30.91291356059675 27.87554837829273 H 0.0 **** 0.52
15268 M 22.051334008789482 31.62890795804058 27.818558068262746 M 0.0 **** -1.04
15269 O 20.906452544134 19.307735887688107 14.06038478054499 O 0.0 **** 0.0
15270 H 20.29186150589578 18.611669063629485 14.29275767716556 H 0.0 **** 0.52
15271 H 21.767597438847446 18.948971944990475 14.274736113292557 H 0.0 **** 0.52
15272 M 20.938014906807688 19.172704649838792 14.11757157717106 M 0.0 **** -1.04
15273 O 1.7647757632596965 7.995455488946538 1.0323543134147002 O 0.0 **** 0.0
15274 H 1.6222298451351143 7.68918772573913 1.927959892198004 H 0.0 **** 0.52
15275 H 0.9323692992186323 8.395016753005747 0.7800097864681206 H 0.0 **** 0.52
15276 M 1.639970013844862 8.007397533982173 1.1147000548490027 M 0.0 **** -1.04
15277 O 16.408921656655963 30.934185200427844 25.094104756755993 O 0.0 **** 0.0
15278 H 17.291035551505658 30.770877524047275 24.76028636537393 H 0.0 **** 0.52
15279 H 15.971660082237236 31.415183342876762 24.391486697039923 H 0.0 **** 0.52
15280 M 16.465868381477918 30.97485350731043 24.961427564423065 M 0.0 **** -1.04
15281 O 41.27940345456175 8.44268129214933 39.54810757647508 O 0.0 **** 0.0
15282 H 42.2024158684611 8.275229297670059 39.73846568084347 H 0.0 **** 0.52
15283 H 40.947108172365844 8.8763528267379 40.334070600950184 H 0.0 **** 0.52
15284 M 41.35502322832748 8.476761293117924 39.673089419522796 M 0.0 **** -1.04
15285 O 37.062497785897165 21.649541229083752 29.870136403102553 O 0.0 **** 0.0
15286 H 37.97652427538579 21.380027829502353 29.779880008223003 H 0.0 **** 0.52
15287 H 37.02546687727563 22.09238481409929 30.717926714190583 H 0.0 **** 0.52
15288 M 37.17476391260654 21.671729855366323 29.967110399005332 M 0.0 **** -1.04
15289 O 3.4954804815836553 11.644569766583068 14.919563896971283 O 0.0 **** 0.0
15290 H 3.517193419306949 11.137966998894449 14.107707761823036 H 0.0 **** 0.52
15291 H 2.987949780156299 11.104903050720424 15.525699245208656 H 0.0 **** 0.52
15292 M 3.433289680940966 11.51063436207275 14.89322930946581 M 0.0 **** -1.04
15293 O 29.276496412778705 11.839656730669958 30.705049409025133 O 0.0 **** 0.0
15294 H 30.155664328368125 11.586957713102052 30.423206836435657 H 0.0 **** 0.52
15295 H 28.79566937172195 11.984699247299254 29.890189230825257 H 0.0 **** 0.52
15296 M 29.327488901741372 11.82587543883021 30.56465708141913 M 0.0 **** -1.04
15297 O 37.395761075567265 3.3428321163172043 7.260013076238162 O 0.0 **** 0.0
15298 H 37.74430360015069 4.037678564925784 7.81852545177561 H 0.0 **** 0.52
15299 H 38.06208903994182 3.221704936657069 6.583578700045269 H 0.0 **** 0.52
15300 M 37.525676765865015 3.4162756959718976 7.244917223829367 M 0.0 **** -1.04
15301 O 13.491660988965638 9.274724830229541 45.01368092474797 O 0.0 **** 0.0
15302 H 14.02584445120782 10.036606093340131 45.23821362436272 H 0.0 **** 0.52
15303 H 13.721274805483528 9.079998393160121 44.10506192605618 H 0.0 **** 0.52
15304 M 13.589437015321725 9.347328357284908 44.92610981233002 M 0.0 **** -1.04
15305 O 16.107128609629754 41.76278066733689 21.545917843294465 O 0.0 **** 0.0
15306 H 15.197512535804975 41.51443587361082 21.710695830025404 H 0.0 **** 0.52
15307 H 16.495870743653512 41.84191488178617 22.417035321925507 H 0.0 **** 0.52
15308 M 16.04045032252428 41.74111955969744 21.678525647041155 M 0.0 **** -1.04
15309 O 20.846194447559007 47.941039226376226 27.314185378890656 O 0.0 **** 0.0
15310 H 21.27755305932581 47.96758291437845 26.46010455959535 H 0.0 **** 0.52
15311 H 20.22363793198513 47.21713731512837 27.24622665811465 H 0.0 **** 0.52
15312 M 20.821719630946635 47.85176861341504 27.19615285698532 M 0.0 **** -1.04
15313 O 24.888324706859635 43.21187975297661 47.603287618688285 O 0.0 **** 0.0
15314 H 24.79243232590329 42.2709487090609 47.45603517648605 H 0.0 **** 0.52
15315 H 25.82026044488424 43.33254185494714 47.78539872188867 H 0.0 **** 0.52
15316 M 24.995348689386418 43.106874594512284 47.60774968569779 M 0.0 **** -1.04
15317 O 20.113705185844953 7.73016876388401 26.119450649734375 O 0.0 **** 0.0
15318 H 20.475622117497156 8.561945351410234 25.81384793455843 H 0.0 **** 0.52
15319 H 20.873802044750597 7.154707596731063 26.20503694737581 H 0.0 **** 0.52
15320 M 20.257336338915284 7.762980420731487 26.091285537741136 M 0.0 **** -1.04
15321 O 26.076433222687797 8.044128376798781 19.670863474860667 O 0.0 **** 0.0
15322 H 26.664937305980228 7.411975140002603 19.258219771225086 H 0.0 **** 0.52
15323 H 25.202661074715692 7.7851502561219235 19.378150586123667 H 0.0 **** 0.52
15324 M 26.039915502719335 7.930051938653662 19.5805686384942 M 0.0 **** -1.04
15325 O 27.366026176623457 7.103116353469619 23.58288998713317 O 0.0 **** 0.0
15326 H 27.009678482441423 7.898407280963751 23.186963027547208 H 0.0 **** 0.52
15327 H 26.945291831336764 6.388073645600061 23.105474646882087 H 0.0 **** 0.52
15328 M 27.26654972960743 7.113389380758327 23.471090765076852 M 0.0 **** -1.04
15329 O 10.478462570949546 17.924770909748762 5.448626194344007 O 0.0 **** 0.0
15330 H 11.36252898762659 17.558610928297472 5.424461258333026 H 0.0 **** 0.52
15331 H 10.570132265667453 18.79854312390793 5.068696987171486 H 0.0 **** 0.52
15332 M 10.6033689577948 17.989751131246507 5.396896647599733 M 0.0 **** -1.04
15333 O 44.88854225249163 22.681355526474704 15.936286080041839 O 0.0 **** 0.0
15334 H 45.671146837786004 22.731761110564772 16.485119062037583 H 0.0 **** 0.52
15335 H 44.218921967669324 22.304621077370907 16.50717091169227 H 0.0 **** 0.52
15336 M 44.90300549863196 22.639581077880123 16.079625014995734 M 0.0 **** -1.04
15337 O 22.803295562766316 43.76622130713171 21.72327370723373 O 0.0 **** 0.0
15338 H 22.077131100387845 44.23160236006614 22.138404655585646 H 0.0 **** 0.52
15339 H 22.570940808825572 43.73797399041138 20.795134191550034 H 0.0 **** 0.52
15340 M 22.680593222069703 43.8221804130996 21.65760126119389 M 0.0 **** -1.04
15341 O 37.747068832401915 0.21115362519388103 6.172170213712732 O 0.0 **** 0.0
15342 H 38.1060569773329 0.9560216072547257 5.689959548106344 H 0.0 **** 0.52
15343 H 38.36729539488322 0.06642807993899466 6.8867350261295215 H 0.0 **** 0.52
15344 M 37.87242032691096 0.2879790949415378 6.201914842747243 M 0.0 **** -1.04
15345 O 12.230140302197114 18.108557431958182 29.977036967401567 O 0.0 **** 0.0
15346 H 12.999336295716219 18.674003793121656 30.046581259587146 H 0.0 **** 0.52
15347 H 12.422006511407673 17.532284170431467 29.237223115415155 H 0.0 **** 0.52
15348 M 12.353168136490659 18.10717196443121 29.891234244637175 M 0.0 **** -1.04
15349 O 45.62868637229906 45.862387932406016 5.064653600252194 O 0.0 **** 0.0
15350 H 45.3089621481091 45.795037575229216 5.964358261632282 H 0.0 **** 0.52
15351 H 45.03344156876768 45.31126633748449 4.556542328721221 H 0.0 **** 0.52
15352 M 45.51155883993289 45.783215507276005 5.1147820429455715 M 0.0 **** -1.04
15353 O 16.20641162425559 18.346261002633682 41.99450076187727 O 0.0 **** 0.0
15354 H 16.808579541972573 18.16834338851291 41.272027664586716 H 0.0 **** 0.52
15355 H 15.708676604702752 17.535144144344613 42.09735538549552 H 0.0 **** 0.52
15356 M 16.21978096188595 18.21965222455451 41.915181696661904 M 0.0 **** -1.04
15357 O 30.939567806570654 17.40932711585008 15.92510073351955 O 0.0 **** 0.0
15358 H 30.640337644543077 16.787763186716298 16.58868775064406 H 0.0 **** 0.52
15359 H 31.2235383203322 16.861202845420976 15.193562042468937 H 0.0 **** 0.52
15360 M 30.937614406196566 17.259591794567836 15.916402259890864 M 0.0 **** -1.04
15361 O 4.360615468122383 12.982227408241513 36.37093597027324 O 0.0 **** 0.0
15362 H 4.548865328773417 13.706848657610038 36.96735457532918 H 0.0 **** 0.52
15363 H 3.49252160054579 13.180008854426916 36.01947687745426 H 0.0 **** 0.52
15364 M 4.27358712955343 13.100306539920652 36.402293840765545 M 0.0 **** -1.04
15365 O 4.214810865345328 9.216417873248133 20.762414896190247 O 0.0 **** 0.0
15366 H 3.3137865330948983 9.32781590543478 21.06568790884283 H 0.0 **** 0.52
15367 H 4.157861024864928 8.545314348071008 20.08226403353634 H 0.0 **** 0.52
15368 M 4.092177746097441 9.1447686674628 20.7141699534308 M 0.0 **** -1.04
15369 O 20.788741818056945 13.589392515208715 12.06939806528915 O 0.0 **** 0.0
15370 H 21.09056902198489 14.194221358682341 12.747122801818215 H 0.0 **** 0.52
15371 H 19.83858295072556 13.703863943315838 12.051441428753861 H 0.0 **** 0.52
15372 M 20.705747033154925 13.681471742027433 12.153856513555361 M 0.0 **** -1.04
15373 O 2.824869445635983 37.47066367819837 35.47096327294432 O 0.0 **** 0.0
15374 H 2.278355315961285 37.776464314762364 36.19486777382622 H 0.0 **** 0.52
15375 H 2.9070363949561795 36.527781886492264 35.61396763635542 H 0.0 **** 0.52
15376 M 2.7654264185710673 37.38910962073982 35.58193816189407 M 0.0 **** -1.04
15377 O 47.49538363701714 14.259909582306491 23.67708386426409 O 0.0 **** 0.0
15378 H 47.15352270248321 13.711720442132851 22.97079156418548 H 0.0 **** 0.52
15379 H 48.30235303012691 13.823622389090595 23.950362425980753 H 0.0 **** 0.52
15380 M 47.55492362121158 14.133884250989112 23.621652115613394 M 0.0 **** -1.04
15381 O 18.85589776831086 16.58273402157881 31.29206784032149 O 0.0 **** 0.0
15382 H 18.943191576378783 16.716039047230232 30.348225272699683 H 0.0 **** 0.52
15383 H 19.66266930118836 16.9423701055777 31.660864280992044 H 0.0 **** 0.52
15384 M 18.970349270239463 16.645836597445992 31.218454756082277 M 0.0 **** -1.04
15385 O 14.068268482311552 4.08352125183572 1.9612704038171813 O 0.0 **** 0.0
15386 H 14.68609647165215 4.378775603526172 1.292434587885353 H 0.0 **** 0.52
15387 H 14.48810682475326 4.308041469789231 2.791664857679258 H 0.0 **** 0.52
15388 M 14.201102760388046 4.150058739089431 1.9819521040823602 M 0.0 **** -1.04
15389 O 17.5049343350276 1.6937200719254406 45.63138762124306 O 0.0 **** 0.0
15390 H 17.68052205745918 1.4358863417164613 44.72644602370002 H 0.0 **** 0.52
15391 H 17.938289659539436 2.5417503912821218 45.72770116573168 H 0.0 **** 0.52
15392 M 17.58288661113989 1.7692733099017062 45.527872718749684 M 0.0 **** -1.04
15393 O 5.6026001880206735 27.112459036317755 5.694023731574185 O 0.0 **** 0.0
15394 H 5.367550339984329 27.564505293064293 6.50435324450687 H 0.0 **** 0.52
15395 H 4.7650938321798835 26.837086307216573 5.321221908313024 H 0.0 **** 0.52
15396 M 5.465298690203571 27.135075867217022 5.750032503023478 M 0.0 **** -1.04
15397 O 21.70237115611081 11.20347825720853 11.437982472095648 O 0.0 **** 0.0
15398 H 21.78023936176165 10.820419160076504 12.31172752535825 H 0.0 **** 0.52
15399 H 21.409730835155816 12.101261290869552 11.594748527858812 H 0.0 **** 0.52
15400 M 21.674877620796416 11.269369367447396 11.569901691898522 M 0.0 **** -1.04
15401 O 47.94625627446832 12.280790743772016 16.89851555610126 O 0.0 **** 0.0
15402 H 48.37653562499375 12.476159558979788 16.066097612700958 H 0.0 **** 0.52
15403 H 47.06965254698596 11.985704975607064 16.65210342993126 H 0.0 **** 0.52
15404 M 47.88912137588801 12.268025555231006 16.76041141636702 M 0.0 **** -1.04
15405 O 16.053125258626018 42.74925053885141 38.02178142947266 O 0.0 **** 0.0
15406 H 16.01759845834279 42.22281533896858 37.223138078082435 H 0.0 **** 0.52
15407 H 16.345283513537822 43.61203256238674 37.727708607749804 H 0.0 **** 0.52
15408 M 16.085976951561463 42.792306770344005 37.881900209025 M 0.0 **** -1.04
15409 O 43.241484617755475 41.73714861355238 16.262951676493643 O 0.0 **** 0.0
15410 H 44.148219907686375 41.90054045967065 16.52249532995233 H 0.0 **** 0.52
15411 H 43.16209520503456 40.78327623099581 16.25571486425397 H 0.0 **** 0.52
15412 M 43.34739508925145 41.635957419268244 16.295250251568525 M 0.0 **** -1.04
15413 O 5.442498704406774 47.88501788231853 42.77678877810782 O 0.0 **** 0.0
15414 H 5.19682775257929 47.08401514960179 42.313896420968305 H 0.0 **** 0.52
15415 H 4.6241289596894415 48.20195343796253 43.15895516729531 H 0.0 **** 0.52
15416 M 5.30628857605311 47.82305071145896 42.76645478321082 M 0.0 **** -1.04
15417 O 29.356365782236804 39.186443265112636 0.7803433954120341 O 0.0 **** 0.0
15418 H 29.72787673980496 39.18406389909121 -0.10181437511230484 H 0.0 **** 0.52
15419 H 29.80215139879505 39.90644950697181 1.2265442023274367 H 0.0 **** 0.52
15420 M 29.46098978638725 39.2783080236196 0.7245350535445888 M 0.0 **** -1.04
15421 O 43.36439310233075 7.678824538418342 21.72440792820314 O 0.0 **** 0.0
15422 H 42.601430827463275 8.010447794520783 21.25097079114071 H 0.0 **** 0.52
15423 H 42.99751647600441 7.226608118974617 22.484099360538472 H 0.0 **** 0.52
15424 M 43.21975999984156 7.663387155395647 21.7610517227632 M 0.0 **** -1.04
15425 O 25.12776265639523 41.29103738180914 3.483200496001082 O 0.0 **** 0.0
15426 H 25.376790463046387 42.200407887317056 3.648303415848673 H 0.0 **** 0.52
15427 H 25.309837365074053 40.838988218676995 4.307049975638876 H 0.0 **** 0.52
15428 M 25.18294949672553 41.34958081492317 3.609798670089674 M 0.0 **** -1.04
15429 O 42.58999244523302 18.432331973277396 22.999946322126092 O 0.0 **** 0.0
15430 H 42.72404607010252 18.17647029405535 22.087371284146386 H 0.0 **** 0.52
15431 H 41.77797443494568 17.994469223569748 23.25515498462815 H 0.0 **** 0.52
15432 M 42.50320494536388 18.343526270812216 22.915795196987318 M 0.0 **** -1.04
15433 O 26.898801165198726 48.532546878405654 21.92179479350568 O 0.0 **** 0.0
15434 H 27.019210580862733 48.33312225322891 20.993376602236918 H 0.0 **** 0.52
15435 H 26.972284856917206 47.685127680678754 22.360780756954977 H 0.0 **** 0.52
15436 M 26.92362182408289 48.398537897174364 21.8591417049632 M 0.0 **** -1.04
15437 O 43.04876337473202 2.119669129381982 23.593736656633894 O 0.0 **** 0.0
15438 H 43.3359569350238 2.9287038298766124 23.170401378306096 H 0.0 **** 0.52
15439 H 42.181928553674425 2.3263022033428413 23.943204488802905 H 0.0 **** 0.52
15440 M 42.97456182851222 2.249687611602982 23.584280275003152 M 0.0 **** -1.04
15441 O 1.3294241252202208 7.1364047466719915 8.580860241005206 O 0.0 **** 0.0
15442 H 0.553216555238154 7.194358692797396 8.023749904478834 H 0.0 **** 0.52
15443 H 1.986325283602968 7.669815215079371 8.133442631960458 H 0.0 **** 0.52
15444 M 1.314150633115349 7.212107552776445 8.452267921448998 M 0.0 **** -1.04
15445 O 28.724358418870036 10.112289176799095 2.1724867007742077 O 0.0 **** 0.0
15446 H 28.589985010363677 11.006450709508535 2.4865692982725633 H 0.0 **** 0.52
15447 H 27.980165014489845 9.946860482040442 1.5936627768062266 H 0.0 **** 0.52
15448 M 28.61189162044578 10.205575561925315 2.138596636577063 M 0.0 **** -1.04
15449 O 46.4875770432125 30.81437551718976 37.150146544841114 O 0.0 **** 0.0
15450 H 47.018066045244524 30.504536102830095 37.884183102621535 H 0.0 **** 0.52
15451 H 46.183866094686714 30.01533997056608 36.71941242155604 H 0.0 **** 0.52
15452 M 46.516607107275995 30.672425027724366 37.188973563050084 M 0.0 **** -1.04
15453 O 38.07247283035179 15.66836980958331 43.75133118725731 O 0.0 **** 0.0
15454 H 37.82338550881359 15.765039073469747 42.83218039572181 H 0.0 **** 0.52
15455 H 39.016190438913625 15.828072727474806 43.76230820798429 H 0.0 **** 0.52
15456 M 38.16139375834682 15.701188522863614 43.63507405195317 M 0.0 **** -1.04
15457 O 41.92333422554786 24.10377418521083 20.738155333148207 O 0.0 **** 0.0
15458 H 42.741016336649125 23.60631334164417 20.750702451084223 H 0.0 **** 0.52
15459 H 41.54609430522317 23.92376378498896 19.877042825210395 H 0.0 **** 0.52
15460 M 41.97971660744029 24.017049939402973 20.629528031487048 M 0.0 **** -1.04
15461 O 12.147011572632863 39.191133719820876 23.00597049803909 O 0.0 **** 0.0
15462 H 11.196418067929491 39.20789884685077 22.89497623415413 H 0.0 **** 0.52
15463 H 12.469809685276704 39.87021881234832 22.41362567874672 H 0.0 **** 0.52
15464 M 12.066645863268354 39.280211300791926 22.915934599777987 M 0.0 **** -1.04
15465 O 7.123002632125115 16.064840583746225 49.957616280894996 O 0.0 **** 0.0
15466 H 6.811616358400284 16.101035982922124 50.86202569729341 H 0.0 **** 0.52
15467 H 6.429594253337881 16.484132363230742 49.44809848556864 H 0.0 **** 0.52
15468 M 6.994376297424937 16.12314862104725 50.008167591903685 M 0.0 **** -1.04
15469 O 4.420365484196902 46.225422545797684 33.2690102713729 O 0.0 **** 0.0
15470 H 5.355441624791709 46.04213230874234 33.35993344442118 H 0.0 **** 0.52
15471 H 4.004159492159194 45.690821412198275 33.94517772025578 H 0.0 **** 0.52
15472 M 4.48678767790281 46.1335236763367 33.36720789024985 M 0.0 **** -1.04
15473 O 24.071605421941783 34.02277257896458 25.34591516221722 O 0.0 **** 0.0
15474 H 23.25344456274432 33.55819892310599 25.1698112298362 H 0.0 **** 0.52
15475 H 24.063073069021513 34.17400040568356 26.29105341211513 H 0.0 **** 0.52
15476 M 23.965778537589358 33.98266040845265 25.444361405868626 M 0.0 **** -1.04
15477 O 7.0367366743972495 7.081920010166378 40.139046286478425 O 0.0 **** 0.0
15478 H 7.9026787959009335 7.012966872984137 40.54106377793611 H 0.0 **** 0.52
15479 H 6.5698335622770045 7.716873504196677 40.68224442788417 H 0.0 **** 0.52
15480 M 7.087817952845283 7.154375415693693 40.26004553913304 M 0.0 **** -1.04
15481 O 14.722043355895053 16.133075076784216 42.85850708448717 O 0.0 **** 0.0
15482 H 14.992279613262923 15.62962418627963 43.62645130867685 H 0.0 **** 0.52
15483 H 14.000220186951168 16.678558827536424 43.17099083267496 H 0.0 **** 0.52
15484 M 14.66423449026243 16.138455364399135 42.996816092380485 M 0.0 **** -1.04
15485 O 6.137401102824022 4.700461518232268 23.81645590779778 O 0.0 **** 0.0
15486 H 5.573329483802603 4.804282821425611 23.05011875371702 H 0.0 **** 0.52
15487 H 5.708483130834821 5.213381039651019 24.501416634735488 H 0.0 **** 0.52
15488 M 6.010286118457778 4.779411935907772 23.806038569680364 M 0.0 **** -1.04
15489 O 37.658308068444725 35.74022641515021 8.197820338765727 O 0.0 **** 0.0
15490 H 36.87134566531209 35.390323532551776 7.7801035279549575 H 0.0 **** 0.52
15491 H 38.134046205045564 34.966413925627954 8.49967449205805 H 0.0 **** 0.52
15492 M 37.61846719893355 35.59637688306123 8.182988676809899 M 0.0 **** -1.04
15493 O 11.463708653812681 19.791665070296958 22.481819987631827 O 0.0 **** 0.0
15494 H 10.67881102348867 19.289030606608804 22.26382166045726 H 0.0 **** 0.52
15495 H 11.804614789107951 20.083101359324687 21.636197671877913 H 0.0 **** 0.52
15496 M 11.406871974542923 19.76462961203019 22.34566303384724 M 0.0 **** -1.04
15497 O 2.746954939054362 31.745946888271437 9.744718838519795 O 0.0 **** 0.0
15498 H 2.088311859410169 31.522128353118635 10.402231409158333 H 0.0 **** 0.52
15499 H 3.114872279232557 30.90374598465954 9.477205895785552 H 0.0 **** 0.52
15500 M 2.7097382972235877 31.609483734164 9.794643575954112 M 0.0 **** -1.04
15501 O 16.860127787658044 31.815163736330856 46.09359324439649 O 0.0 **** 0.0
15502 H 17.206821716249745 32.26952638497004 45.32574782214793 H 0.0 **** 0.52
15503 H 16.24201425843235 32.435178311842535 46.480564060615315 H 0.0 **** 0.52
15504 M 16.825383172903596 31.952697804606977 46.04483666852225 M 0.0 **** -1.04
15505 O 30.027092799528646 38.01142815124499 14.560465047503973 O 0.0 **** 0.0
15506 H 30.73058035563585 37.49374778526212 14.168876744817764 H 0.0 **** 0.52
15507 H 29.264287750166787 37.835152820105925 14.009752980918929 H 0.0 **** 0.52
15508 M 30.01949913717641 37.92259275750349 14.439837982929376 M 0.0 **** -1.04
15509 O 29.451993288260155 3.5037983387398626 47.72523697547273 O 0.0 **** 0.0
15510 H 28.51312337433561 3.3201768765724964 47.69305019053405 H 0.0 **** 0.52
15511 H 29.861660384224376 2.6437740389546747 47.81882917224192 H 0.0 **** 0.52
15512 M 29.38424839463833 3.3701987609832855 47.73309816796679 M 0.0 **** -1.04
15513 O 5.034123269699204 17.382008073346515 21.691600989353983 O 0.0 **** 0.0
15514 H 5.158276058570371 17.86734566954736 20.875965170388227 H 0.0 **** 0.52
15515 H 4.477016810074062 16.642587915015348 21.448457057501088 H 0.0 **** 0.52
15516 M 4.978699690120988 17.349482721874537 21.556064203224263 M 0.0 **** -1.04
15517 O 20.819107474629888 25.104926502317568 9.4552535674608 O 0.0 **** 0.0
15518 H 20.165387540732524 24.510876079290846 9.824013916726884 H 0.0 **** 0.52
15519 H 20.771639026389867 24.957502141968487 8.510667706072228 H 0.0 **** 0.52
15520 M 20.729346410836218 25.010008540983208 9.381540667444899 M 0.0 **** -1.04
15521 O 18.515098754161535 20.737245571761264 16.922020592143998 O 0.0 **** 0.0
15522 H 18.31016611362564 21.358592292016038 17.62070482767396 H 0.0 **** 0.52
15523 H 17.891738127800178 20.021645141539146 17.04678604689315 H 0.0 **** 0.52
15524 M 18.409066537423133 20.725180086115493 17.027432093644943 M 0.0 **** -1.04
15525 O 14.027193983951117 27.866424825335645 7.886915877099511 O 0.0 **** 0.0
15526 H 13.239533346772161 27.322704963164245 7.900663924572832 H 0.0 **** 0.52
15527 H 13.825408914138546 28.5960453338482 8.472718863082683 H 0.0 **** 0.52
15528 M 13.900532522610208 27.890222739069287 7.963666045906436 M 0.0 **** -1.04
15529 O 0.40219356799580896 7.128218851003439 38.7300992209846 O 0.0 **** 0.0
15530 H 0.8608575523611985 7.9515137945113 38.562642289721474 H 0.0 **** 0.52
15531 H -0.4801249891711379 7.271069330410137 38.387554884910095 H 0.0 **** 0.52
15532 M 0.3479598190811825 7.251897939220279 38.66481225745813 M 0.0 **** -1.04
15533 O 14.934351374519892 37.67651178156936 32.39095381497753 O 0.0 **** 0.0
15534 H 14.233193045586518 37.125283400953435 32.04345942491122 H 0.0 **** 0.52
15535 H 14.510417586352615 38.207439039758526 33.06521205947035 H 0.0 **** 0.52
15536 M 14.790325770731446 37.67391322086917 32.432783541365005 M 0.0 **** -1.04
15537 O 49.07470649578394 23.68540969039701 47.80929091508987 O 0.0 **** 0.0
15538 H 48.721795467097515 22.79684741542347 47.7630489625214 H 0.0 **** 0.52
15539 H 50.02106092506163 23.56406925015383 47.88622569839428 H 0.0 **** 0.52
15540 M 49.15067438491648 23.556129962872355 47.813220373563674 M 0.0 **** -1.04
15541 O 11.721493856752176 33.20177850735441 26.90286659254471 O 0.0 **** 0.0
15542 H 12.321376418297476 33.06444797049011 26.16971640991346 H 0.0 **** 0.52
15543 H 11.32312191441983 34.0548879753961 26.73043724986539 H 0.0 **** 0.52
15544 M 11.747289436122806 33.29340689930419 26.786940572848405 M 0.0 **** -1.04
15545 O 40.34849261580931 29.41032301465863 28.03581094580982 O 0.0 **** 0.0
15546 H 40.737106186454504 28.9297761302606 27.30486369975734 H 0.0 **** 0.52
15547 H 40.88472769322531 29.171813570742856 28.791981695270955 H 0.0 **** 0.52
15548 M 40.466885086926595 29.31827422073309 28.03904003803455 M 0.0 **** -1.04
15549 O 43.724822345176904 10.971689523999455 23.44295411285469 O 0.0 **** 0.0
15550 H 43.59192115331503 11.392268525049138 22.59343678158305 H 0.0 **** 0.52
15551 H 44.24144997372984 11.602221563488815 23.944704150644714 H 0.0 **** 0.52
15552 M 43.77394432561367 11.106245166691219 23.39843574551289 M 0.0 **** -1.04
15553 O 23.677640428787328 43.6958262642784 42.27239446665538 O 0.0 **** 0.0
15554 H 22.940376789414856 44.240727291140296 41.99716020081948 H 0.0 **** 0.52
15555 H 23.62807045955965 43.690010425978414 43.2282906866687 H 0.0 **** 0.52
15556 M 23.576916059535538 43.76483549160029 42.359527626085466 M 0.0 **** -1.04
15557 O 3.766527445267604 44.38133787105141 14.376663363177062 O 0.0 **** 0.0
15558 H 3.655023044065578 45.078539432201325 15.022963817669378 H 0.0 **** 0.52
15559 H 3.1353750171967727 44.58949114810882 13.687789450775211 H 0.0 **** 0.52
15560 M 3.6714585175506698 44.49723497729344 14.37121314946734 M 0.0 **** -1.04
15561 O 35.008447995286154 30.621977467654915 38.723016829824424 O 0.0 **** 0.0
15562 H 34.59453292505689 30.80901311893139 39.56558460931157 H 0.0 **** 0.52
15563 H 35.749320393799394 30.056049962652565 38.939959203270185 H 0.0 **** 0.52
15564 M 35.050302559233835 30.573474596613664 38.8586475203908 M 0.0 **** -1.04
15565 O 36.160867725073516 45.73629724551936 37.37174961514157 O 0.0 **** 0.0
15566 H 36.929116872948484 45.446985336383854 37.86401024622596 H 0.0 **** 0.52
15567 H 36.05946292089265 46.65893434470937 37.605601460473444 H 0.0 **** 0.52
15568 M 36.24623202552506 45.817371463984635 37.464701537045634 M 0.0 **** -1.04
15569 O 21.67862963152657 38.66072058327259 46.91582641064911 O 0.0 **** 0.0
15570 H 21.09953065428925 39.237588457185794 47.413919145369576 H 0.0 **** 0.52
15571 H 21.54880121103083 38.91986084833136 46.00356463988393 H 0.0 **** 0.52
15572 M 21.5878774587845 38.76774053055504 46.86280717305298 M 0.0 **** -1.04
15573 O 33.030073957945234 48.23467359674974 45.29754195448036 O 0.0 **** 0.0
15574 H 32.5633007252423 48.94905555099094 44.86394107119576 H 0.0 **** 0.52
15575 H 33.1775469459147 47.5896469570134 44.60586183857676 H 0.0 **** 0.52
15576 M 32.98919948424157 48.24355163960326 45.15349198938645 M 0.0 **** -1.04
15577 O 12.261208620818962 38.11741897200927 45.151788414352346 O 0.0 **** 0.0
15578 H 11.938527824619783 37.892540849236006 46.024448510270815 H 0.0 **** 0.52
15579 H 12.492844821649385 37.27651831559386 44.757506371996676 H 0.0 **** 0.52
15580 M 12.249553378924212 37.980985838454 45.213027035284476 M 0.0 **** -1.04
15581 O 5.8621485413042915 37.47573262435958 47.50439104640435 O 0.0 **** 0.0
15582 H 6.378500133206054 37.44763566372386 48.30988516630483 H 0.0 **** 0.52
15583 H 5.2153197614668345 36.77802743191009 47.609506039819685 H 0.0 **** 0.52
15584 M 5.8454459219376815 37.382820250580615 47.620960246757804 M 0.0 **** -1.04
15585 O 39.88432502791078 48.58554211888082 16.525714347133796 O 0.0 **** 0.0
15586 H 39.883889399138916 48.78923609679183 15.590440548527052 H 0.0 **** 0.52
15587 H 39.11309939364518 49.03612939561852 16.869821712948063 H 0.0 **** 0.52
15588 M 39.7855429218253 48.669298291514075 16.45003722141446 M 0.0 **** -1.04
15589 O 33.3284409552456 29.991830411907294 46.38661119253874 O 0.0 **** 0.0
15590 H 32.56650941814946 29.580158334102233 45.978915104810945 H 0.0 **** 0.52
15591 H 33.66147485141055 29.33156838141177 46.994369395834 H 0.0 **** 0.52
15592 M 33.27353692388137 29.85460967449623 46.41222138444224 M 0.0 **** -1.04
15593 O 5.2866864343915765 33.69065916009809 45.30388320035926 O 0.0 **** 0.0
15594 H 5.018642825569536 33.12299770402875 44.58129051025217 H 0.0 **** 0.52
15595 H 5.376986132461454 34.557243489227815 44.90751527869986 H 0.0 **** 0.52
15596 M 5.2639329896535685 33.728925495717604 45.16064244466175 M 0.0 **** -1.04
15597 O 48.13011781265853 20.062483463918436 39.371592274865066 O 0.0 **** 0.0
15598 H 48.69038346006689 20.404115742064086 40.06845595581045 H 0.0 **** 0.52
15599 H 47.38664129427646 19.672141285311522 39.83105223470762 H 0.0 **** 0.52
15600 M 48.10666479400253 20.05624780312023 39.51961601768137 M 0.0 **** -1.04
15601 O 42.543260972546065 20.543115567386614 39.9111717172815 O 0.0 **** 0.0
15602 H 43.44151447205801 20.84004217644863 39.76555841648615 H 0.0 **** 0.52
15603 H 42.53875885952909 20.225976283691107 40.8142942837981 H 0.0 **** 0.52
15604 M 42.65767214806241 20.54052785195898 40.00814202999027 M 0.0 **** -1.04
15605 O 19.35401889015419 34.40994549669037 35.448707680576156 O 0.0 **** 0.0
15606 H 19.56472086585273 33.64533485713627 34.91279430013011 H 0.0 **** 0.52
15607 H 19.53065698204126 34.12963411126228 36.34673506445685 H 0.0 **** 0.52
15608 M 19.403604079209735 34.27618214617863 35.495062978517076 M 0.0 **** -1.04
15609 O 16.319904358756126 16.311368578066602 31.845514715444693 O 0.0 **** 0.0
15610 H 17.223379972159584 16.608066226538412 31.954737345896675 H 0.0 **** 0.52
15611 H 15.865192212385203 16.635583223198893 32.62291511125227 H 0.0 **** 0.52
15612 M 16.37735132429463 16.390853079649386 31.959013367016254 M 0.0 **** -1.04
15613 O 7.963083781592431 43.49910446099001 41.12404857887698 O 0.0 **** 0.0
15614 H 7.445399853136351 43.24303844218604 41.88737204769879 H 0.0 **** 0.52
15615 H 8.816237680578418 43.742513969849725 41.48336590875224 H 0.0 **** 0.52
15616 M 8.0060283136932 43.49748400518124 41.2677602648028 M 0.0 **** -1.04
15617 O 17.45964644834245 5.855589735643122 47.436109747721765 O 0.0 **** 0.0
15618 H 17.050603039655517 6.562750292623118 46.937275316582294 H 0.0 **** 0.52
15619 H 18.23670950298268 6.255595992487809 47.82648904148493 H 0.0 **** 0.52
15620 M 17.506757660908264 5.997320975463881 47.42222592132403 M 0.0 **** -1.04
15621 O 20.410786008151135 2.337387984695053 35.00620798952566 O 0.0 **** 0.0
15622 H 20.207768686453377 1.652378547989362 34.36920324241933 H 0.0 **** 0.52
15623 H 21.031405599823003 1.928107319396406 35.609158318929275 H 0.0 **** 0.52
15624 M 20.46424492478195 2.19730473269873 35.001848240702785 M 0.0 **** -1.04
15625 O 24.374767982687 26.491858660821695 44.37995372263876 O 0.0 **** 0.0
15626 H 24.166828252035913 27.407582513527856 44.19437616565747 H 0.0 **** 0.52
15627 H 25.208206907252148 26.525411773598847 44.84950873844954 H 0.0 **** 0.52
15628 M 24.454839278639266 26.613377752089356 44.41630696615314 M 0.0 **** -1.04
15629 O 5.495083674032352 12.64193511380607 23.49218019270421 O 0.0 **** 0.0
15630 H 5.504460256254336 13.595432765374767 23.575748090366528 H 0.0 **** 0.52
15631 H 4.769341573539712 12.460488876650984 22.895015824383673 H 0.0 **** 0.52
15632 M 5.403379639433263 12.740767223795153 23.426433940131517 M 0.0 **** -1.04
15633 O 48.2296461392831 23.600816851320896 31.932288041945295 O 0.0 **** 0.0
15634 H 47.78500798827536 24.393074035154548 31.630866682287042 H 0.0 **** 0.52
15635 H 47.578150669378296 22.906839978146838 31.831397991430293 H 0.0 **** 0.52
15636 M 48.089327170046765 23.61339751679812 31.88078691882551 M 0.0 **** -1.04
15637 O 5.038742536946862 32.00221377623769 7.152701334530223 O 0.0 **** 0.0
15638 H 5.698881263454216 32.64414302893075 6.8912215779511055 H 0.0 **** 0.52
15639 H 4.290007225559535 32.528538177923494 7.4330733347233595 H 0.0 **** 0.52
15640 M 5.02740126258997 32.1517645609948 7.15512002518946 M 0.0 **** -1.04
15641 O 10.838679540311418 12.469919880503513 33.94475073653168 O 0.0 **** 0.0
15642 H 10.870107703423962 12.998315152241954 34.742272616423044 H 0.0 **** 0.52
15643 H 9.9130576194815 12.457793648709183 33.70122107716095 H 0.0 **** 0.52
15644 M 10.724211189786736 12.53600883415554 34.015668759180045 M 0.0 **** -1.04
15645 O 4.303831644206135 25.855257840840455 49.77587863663402 O 0.0 **** 0.0
15646 H 3.9013286318197005 26.449586014910608 49.14263793159643 H 0.0 **** 0.52
15647 H 3.9297974103384865 26.113110281191442 50.61839812069673 H 0.0 **** 0.52
15648 M 4.204425466334902 25.964347530783137 49.80266870252134 M 0.0 **** -1.04
15649 O 7.616037783100699 20.20702050630722 23.511430360555774 O 0.0 **** 0.0
15650 H 6.704187120287227 20.474630541665075 23.3967931982227 H 0.0 **** 0.52
15651 H 8.10106656634347 20.726703215037663 22.870410199842393 H 0.0 **** 0.52
15652 M 7.561398826476557 20.307803792903538 23.414696770160013 M 0.0 **** -1.04
15653 O 49.36533691231383 15.65577247841226 49.56876390404416 O 0.0 **** 0.0
15654 H 50.08026850720574 15.383387494080415 50.14400976575483 H 0.0 **** 0.52
15655 H 49.50857509306187 16.59269986630588 49.435051470088986 H 0.0 **** 0.52
15656 M 49.47519380486062 15.740841440148568 49.62528546780575 M 0.0 **** -1.04
15657 O 30.67361554769826 19.798838102269738 33.2052562056707 O 0.0 **** 0.0
15658 H 30.53303363553033 18.854170909880704 33.26904635965119 H 0.0 **** 0.52
15659 H 30.531359355589018 20.00073384481122 32.28046957769859 H 0.0 **** 0.52
15660 M 30.63740862952784 19.703754279394296 33.095037739359526 M 0.0 **** -1.04
15661 O 47.94330011368366 12.755961181184082 38.61636341027185 O 0.0 **** 0.0
15662 H 48.811350420254065 13.077858123867834 38.37325870839475 H 0.0 **** 0.52
15663 H 47.988993696396335 11.810691493085178 38.47281650466203 H 0.0 **** 0.52
15664 M 48.06027163286227 12.676161941704315 38.56686733660437 M 0.0 **** -1.04
15665 O 48.665716680029696 49.895623975769865 45.56353665543713 O 0.0 **** 0.0
15666 H 49.58952395881706 50.08607114269944 45.726442013988596 H 0.0 **** 0.52
15667 H 48.60261753673857 48.94251724498273 45.625469609903874 H 0.0 **** 0.52
15668 M 48.775898108667796 49.79799368003741 45.59231853215587 M 0.0 **** -1.04
15669 O 27.204220600469302 49.67391007983462 15.310726249513138 O 0.0 **** 0.0
15670 H 26.70972342855961 50.081482570692856 14.59968088220172 H 0.0 **** 0.52
15671 H 27.33538915583581 48.769991584415656 15.024446840126622 H 0.0 **** 0.52
15672 M 27.157709561895604 49.61037132813653 15.183056081061585 M 0.0 **** -1.04
15673 O 11.499208347764682 40.312592766925505 12.376074915003757 O 0.0 **** 0.0
15674 H 11.65665067670413 40.25685293955024 13.318589718250752 H 0.0 **** 0.52
15675 H 12.37239799309221 40.385643977350114 11.990804749847266 H 0.0 **** 0.52
15676 M 11.6311423481723 40.314809938985896 12.447409749618302 M 0.0 **** -1.04
15677 O 22.050538692568892 26.644622627384546 27.870986176998617 O 0.0 **** 0.0
15678 H 21.36470169788782 27.311156058701965 27.910871686557886 H 0.0 **** 0.52
15679 H 22.786604174749897 27.08291229166789 27.443976584257683 H 0.0 **** 0.52
15680 M 22.05696854539141 26.786054156165957 27.821429714188724 M 0.0 **** -1.04
15681 O 11.174884862399907 25.83764248456935 41.22256519880658 O 0.0 **** 0.0
15682 H 10.522168343581647 25.356322790551108 40.71411496415407 H 0.0 **** 0.52
15683 H 11.250703553705122 25.347354192022294 42.041160349029376 H 0.0 **** 0.52
15684 M 11.101034603891705 25.71326473335023 41.26226718341601 M 0.0 **** -1.04
15685 O 6.202752364036094 47.10412571785289 24.9139108347328 O 0.0 **** 0.0
15686 H 5.769426183816975 47.29941112241323 25.74476548381063 H 0.0 **** 0.52
15687 H 5.5477424372819115 47.31082780249985 24.24722839565336 H 0.0 **** 0.52
15688 M 6.0634308211054915 47.15558512879822 24.934926160154784 M 0.0 **** -1.04
15689 O 26.096907070415533 29.85146732945373 14.181720034128276 O 0.0 **** 0.0
15690 H 25.41051134129739 30.303578725400612 13.691122634653267 H 0.0 **** 0.52
15691 H 25.756090792022327 28.966416411104174 14.311177574237503 H 0.0 **** 0.52
15692 M 25.965411155132564 29.79604474275238 14.135489809153324 M 0.0 **** -1.04
15693 O 9.230214477610268 13.843245899709707 30.87631819063402 O 0.0 **** 0.0
15694 H 9.521645251846614 13.741207173281119 31.782345781553612 H 0.0 **** 0.52
15695 H 9.773910942354675 13.232205629927492 30.379073649166084 H 0.0 **** 0.52
15696 M 9.337121428138062 13.75196282804415 30.928647283413685 M 0.0 **** -1.04
15697 O 32.58921306120371 14.179085693183119 45.91906690704848 O 0.0 **** 0.0
15698 H 33.29474307395036 13.575167018600645 45.68725116203959 H 0.0 **** 0.52
15699 H 32.48342220143048 14.732813874963114 45.145490373306124 H 0.0 **** 0.52
15700 M 32.665987425266536 14.172660249264943 45.79036434692554 M 0.0 **** -1.04
15701 O 2.8248000841210796 26.25550897799883 1.8162373011022317 O 0.0 **** 0.0
15702 H 1.9946278966843636 26.609809417660543 1.4976235253453778 H 0.0 **** 0.52
15703 H 2.8250344380656145 26.450435451546113 2.753377758458341 H 0.0 **** 0.52
15704 M 2.7185574190473005 26.325816624996577 1.8954159873167744 M 0.0 **** -1.04
15705 O 32.62217153383068 22.619177279968987 40.97668623977401 O 0.0 **** 0.0
15706 H 32.71559399589033 22.494516559352366 41.92112300715766 H 0.0 **** 0.52
15707 H 32.62940979947406 21.732676223083793 40.61572508379473 H 0.0 **** 0.52
15708 M 32.635057455676815 22.489735212356038 41.051377981528105 M 0.0 **** -1.04
15709 O 10.401359114774026 20.25012247608506 33.379583569327885 O 0.0 **** 0.0
15710 H 10.500224529211124 19.432909733223976 33.86806771551808 H 0.0 **** 0.52
15711 H 9.848924767869876 20.797791485639372 33.937351263454126 H 0.0 **** 0.52
15712 M 10.34329624546579 20.215617596258657 33.51351719437355 M 0.0 **** -1.04
15713 O 6.847288607199985 30.021359563057835 44.20411107638419 O 0.0 **** 0.0
15714 H 6.829440011869693 30.939027788550476 43.932459597123945 H 0.0 **** 0.52
15715 H 7.495733118179203 29.99189017998581 44.90758823694138 H 0.0 **** 0.52
15716 M 6.928012192641731 30.13505999018176 44.25939068537567 M 0.0 **** -1.04
15717 O 32.88400535215134 1.9928222586048179 3.0043763539193997 O 0.0 **** 0.0
15718 H 33.623285164030435 1.9263469752877924 2.3999969331833366 H 0.0 **** 0.52
15719 H 32.11723769841014 2.075723264001354 2.437434679605554 H 0.0 **** 0.52
15720 M 32.880487400341686 1.9949251213779888 2.854432958889125 M 0.0 **** -1.04
15721 O 11.216725567229702 33.39507442383162 45.54774311267517 O 0.0 **** 0.0
15722 H 12.09773726419381 33.65885496337111 45.813200536654804 H 0.0 **** 0.52
15723 H 11.114031610385297 32.5114801606948 45.90121918479969 H 0.0 **** 0.52
15724 M 11.3163598528849 33.31573024913042 45.626974241576434 M 0.0 **** -1.04
15725 O 5.67065594714488 31.515611456074797 18.803510884664192 O 0.0 **** 0.0
15726 H 4.918929635448379 32.0915257915207 18.664018089628282 H 0.0 **** 0.52
15727 H 6.387373057379975 31.93746442279555 18.329606724689828 H 0.0 **** 0.52
15728 M 5.666174317414011 31.64333742625553 18.724988208784275 M 0.0 **** -1.04
15729 O 35.8649654762425 17.651763436818754 2.5642368954222547 O 0.0 **** 0.0
15730 H 35.764355990636574 16.781728338117645 2.178043613367933 H 0.0 **** 0.52
15731 H 35.75823550268984 17.510580452031093 3.504931345190897 H 0.0 **** 0.52
15732 M 35.838423695309984 17.522314387989297 2.635219940968817 M 0.0 **** -1.04
15733 O 10.948527059838938 13.979064139123846 43.18639535329913 O 0.0 **** 0.0
15734 H 11.554515042676636 14.474990099081653 42.63588259029783 H 0.0 **** 0.52
15735 H 11.129722269624999 13.062659399100422 42.9775925725004 H 0.0 **** 0.52
15736 M 11.049296881156476 13.925237592395503 43.089193388844 M 0.0 **** -1.04
15737 O 46.89668947900245 7.515550970735809 45.85918917850464 O 0.0 **** 0.0
15738 H 46.67494273884023 8.35514705145588 46.2618494543592 H 0.0 **** 0.52
15739 H 46.071500683378005 7.03068137248146 45.84526597679415 H 0.0 **** 0.52
15740 M 46.76266819244888 7.560960627725073 45.908952263986265 M 0.0 **** -1.04
15741 O 8.020006499590812 34.955710532970485 41.322306209728 O 0.0 **** 0.0
15742 H 8.566121519685979 34.80441547835196 42.09373138246252 H 0.0 **** 0.52
15743 H 8.23055698864145 35.84908371775946 41.05067893163983 H 0.0 **** 0.52
15744 M 8.116869714677938 35.05070571296558 41.38628659396167 M 0.0 **** -1.04
15745 O 31.216203254075314 15.920108556355153 30.333431255657306 O 0.0 **** 0.0
15746 H 31.360058430482216 14.994736656237318 30.531472025368377 H 0.0 **** 0.52
15747 H 30.62182809770734 15.915382232735531 29.58314823278187 H 0.0 **** 0.52
15748 M 31.158530688597146 15.801044314783468 30.262737356138757 M 0.0 **** -1.04
15749 O 21.88741674763948 45.438503801363474 41.82476739998025 O 0.0 **** 0.0
15750 H 21.326378842171874 46.04895024406772 42.30311844266788 H 0.0 **** 0.52
15751 H 22.551695504751475 45.99319806621696 41.41577272740189 H 0.0 **** 0.52
15752 M 21.90063242326094 45.58765668619923 41.83364563252071 M 0.0 **** -1.04
15753 O 4.757528078731439 24.52615900341317 25.416779674720303 O 0.0 **** 0.0
15754 H 4.200304058072359 24.70858477014255 24.660175225812306 H 0.0 **** 0.52
15755 H 4.265355337878108 24.86499236002045 26.164568678431777 H 0.0 **** 0.52
15756 M 4.623192232985199 24.592887234380953 25.41565140456534 M 0.0 **** -1.04
15757 O 48.5419946384934 15.04707480601161 15.274456904792274 O 0.0 **** 0.0
15758 H 48.81260249454073 15.200045926781103 14.36913946497745 H 0.0 **** 0.52
15759 H 48.12934239736194 15.867774460575205 15.543526974311831 H 0.0 **** 0.52
15760 M 48.52381143770255 15.171717296051483 15.193009660574432 M 0.0 **** -1.04
15761 O 3.7791635974651996 1.0197568730130513 37.07145302515222 O 0.0 **** 0.0
15762 H 3.5348214328717233 1.7913661816561017 36.56042924344784 H 0.0 **** 0.52
15763 H 2.9802990378677165 0.49377994526623326 37.10876086839511 H 0.0 **** 0.52
15764 M 3.6456195398915767 1.051200745032105 37.01081130580629 M 0.0 **** -1.04
15765 O 26.90939989908847 4.6590175385269985 41.89387849475071 O 0.0 **** 0.0
15766 H 26.23806467481883 3.9786905860114405 41.841985753979536 H 0.0 **** 0.52
15767 H 26.84509090970993 4.991855319345719 42.78903881116939 H 0.0 **** 0.52
15768 M 26.81522881536371 4.614534277787041 42.001827728092344 M 0.0 **** -1.04
15769 O 4.030191828538406 22.79335933629855 28.973405619614592 O 0.0 **** 0.0
15770 H 3.3355766674319653 22.313232488640736 29.424200034498103 H 0.0 **** 0.52
15771 H 4.138283676024827 22.33368617111485 28.140792993532155 H 0.0 **** 0.52
15772 M 3.955109372155121 22.673053621167682 28.92452819355409 M 0.0 **** -1.04
15773 O 13.061809242175237 4.427302788507485 27.372362188250047 O 0.0 **** 0.0
15774 H 13.51055857805099 4.206923189608199 26.55609957150585 H 0.0 **** 0.52
15775 H 12.148635606341784 4.557458125544403 27.116622203098043 H 0.0 **** 0.52
15776 M 13.002356933937477 4.415753233127035 27.235132749798538 M 0.0 **** -1.04
15777 O 36.27997366635181 13.247932727977243 35.961496864483564 O 0.0 **** 0.0
15778 H 36.52422154238995 14.032985430904574 36.451665188052786 H 0.0 **** 0.52
15779 H 37.100001719555166 12.94231391758727 35.57370934462815 H 0.0 **** 0.52
15780 M 36.4162143734665 13.30930642541557 35.974603247380685 M 0.0 **** -1.04
15781 O 21.7033582036879 14.234234721304126 30.26734781227265 O 0.0 **** 0.0
15782 H 20.74985324741917 14.313308768405248 30.295718446638602 H 0.0 **** 0.52
15783 H 21.87333267390473 13.641404531450931 29.535303125154826 H 0.0 **** 0.52
15784 M 21.603056316287716 14.1684669546002 30.177268472484066 M 0.0 **** -1.04
15785 O 44.805156150664544 27.306717521631786 22.377045205090806 O 0.0 **** 0.0
15786 H 45.45959304177185 26.698681363155167 22.0331947213566 H 0.0 **** 0.52
15787 H 43.982310436409925 27.024894010448804 21.977384271995305 H 0.0 **** 0.52
15788 M 44.78359776287079 27.192804577515005 22.28186585809057 M 0.0 **** -1.04
15789 O 26.040077352534283 10.431036323210826 25.96577856158858 O 0.0 **** 0.0
15790 H 25.473532736671274 9.929438757228468 26.55200044254417 H 0.0 **** 0.52
15791 H 26.443471728515192 11.091583328422502 26.52896467108414 H 0.0 **** 0.52
15792 M 26.01919175521784 10.451384053964794 26.112917018512306 M 0.0 **** -1.04
15793 O 48.141479486175506 10.300596556617924 44.93004562802473 O 0.0 **** 0.0
15794 H 48.21462341841545 9.424040162201718 44.55251873896663 H 0.0 **** 0.52
15795 H 49.02727704552463 10.508573293388968 45.22726127102077 H 0.0 **** 0.52
15796 M 48.26423557077293 10.215010611969763 44.919764757975216 M 0.0 **** -1.04
15797 O 48.19753795438917 2.8777977458234583 1.0722379285844856 O 0.0 **** 0.0
15798 H 48.808027155214006 3.4144089902207426 0.5666892004960347 H 0.0 **** 0.52
15799 H 47.41294809956831 3.419892516190532 1.1545813935409344 H 0.0 **** 0.52
15800 M 48.175250987460025 3.0158854587971016 1.0180624749932903 M 0.0 **** -1.04
15801 O 2.0548795296197957 40.367124774054986 6.595203778045224 O 0.0 **** 0.0
15802 H 1.605702930544251 39.6730994228064 6.112710835821375 H 0.0 **** 0.52
15803 H 2.8525323875729525 40.53152421914578 6.092260668187244 H 0.0 **** 0.52
15804 M 2.0994886457961255 40.29932571566852 6.469055401274588 M 0.0 **** -1.04
15805 O 47.65777672809288 48.76567664551353 9.280402546627881 O 0.0 **** 0.0
15806 H 48.539018279676384 49.02341534241578 9.550979817862416 H 0.0 **** 0.52
15807 H 47.6624516559701 47.80961841160666 9.326878434194713 H 0.0 **** 0.52
15808 M 47.77118479058058 48.67628344549586 9.320988575053429 M 0.0 **** -1.04
15809 O 30.490853081630267 29.9882885719058 42.215871383115626 O 0.0 **** 0.0
15810 H 30.562450329320363 30.82547706351923 42.67436691146389 H 0.0 **** 0.52
15811 H 29.594039867460197 29.698750996920793 42.383568855335284 H 0.0 **** 0.52
15812 M 30.385215089169076 30.058394512144343 42.29603250357323 M 0.0 **** -1.04
15813 O 34.816206085823524 34.00066040539965 25.717308413757095 O 0.0 **** 0.0
15814 H 34.00901708990914 34.43536972742473 25.992448012675858 H 0.0 **** 0.52
15815 H 34.53804649677266 33.12440372857234 25.450796649272707 H 0.0 **** 0.52
15816 M 34.67726784930662 33.94413670182688 25.71841274250677 M 0.0 **** -1.04
15817 O 9.676408527781872 42.80155921534134 38.288796603197945 O 0.0 **** 0.0
15818 H 9.18780138575402 42.00162651288555 38.48270128178073 H 0.0 **** 0.52
15819 H 10.119516812173638 43.01700195959407 39.10944838113387 H 0.0 **** 0.52
15820 M 9.670584415107259 42.7267375890769 38.41867246492251 M 0.0 **** -1.04
15821 O 46.44367062395341 34.37452338259478 3.5786474094353053 O 0.0 **** 0.0
15822 H 46.98131961321543 35.128213439696154 3.8217795728311135 H 0.0 **** 0.52
15823 H 46.94950956025457 33.927887335151645 2.899772543767446 H 0.0 **** 0.52
15824 M 46.577249927776364 34.413830323529375 3.5228673388854097 M 0.0 **** -1.04
15825 O 32.0316486119379 1.8336288982877207 38.14727306264757 O 0.0 **** 0.0
15826 H 32.093411096711 2.0071251312521454 37.20795720328694 H 0.0 **** 0.52
15827 H 31.771853446368407 0.914165720940538 38.20492005120679 H 0.0 **** 0.52
15828 M 32.00629823681835 1.7381356481151329 38.03440834572167 M 0.0 **** -1.04
15829 O 17.025315488761574 5.1079427480754305 39.010024978426785 O 0.0 **** 0.0
15830 H 17.754960191350673 5.113742602130927 38.39049676774566 H 0.0 **** 0.52
15831 H 17.27755017661683 4.464063449936177 39.67186034386476 H 0.0 **** 0.52
15832 M 17.151008499992006 5.026260645689064 39.01544013295585 M 0.0 **** -1.04
15833 O 14.709589624285073 20.60491196182748 29.82664268020045 O 0.0 **** 0.0
15834 H 14.273334581383267 20.550280455873605 28.976392220174386 H 0.0 **** 0.52
15835 H 14.266383880047599 21.323251651519193 30.278068137517725 H 0.0 **** 0.52
15836 M 14.59700754532372 20.68987509075369 29.7755878081428 M 0.0 **** -1.04
15837 O 10.491543563903384 39.71984937346633 34.70228191049927 O 0.0 **** 0.0
15838 H 10.484076648076746 40.12044688503687 35.5715886021021 H 0.0 **** 0.52
15839 H 9.585753314802531 39.447188429760956 34.55589626934411 H 0.0 **** 0.52
15840 M 10.374635173384252 39.736227211890366 34.794824495057846 M 0.0 **** -1.04
15841 O 48.87174215499207 19.86060460091826 30.023880501447294 O 0.0 **** 0.0
15842 H 47.966591069172104 19.68987539817613 29.763529075657825 H 0.0 **** 0.52
15843 H 49.366859790971304 19.12223134616811 29.66906573864895 H 0.0 **** 0.52
15844 M 48.819252806464625 19.744227494380056 29.945131170682206 M 0.0 **** -1.04
15845 O 13.604025110320947 30.862291901715157 9.618352329511247 O 0.0 **** 0.0
15846 H 12.96662041273818 30.16813592478892 9.785959857526663 H 0.0 **** 0.52
15847 H 13.46745978629052 31.096997822933872 8.700478934016111 H 0.0 **** 0.52
15848 M 13.50494686265384 30.803475915863615 9.522308438073331 M 0.0 **** -1.04
15849 O 16.055787188013497 6.5581930961892665 11.648175786071974 O 0.0 **** 0.0
15850 H 16.145673906308765 6.911407943764452 10.76308425372126 H 0.0 **** 0.52
15851 H 16.677352539648474 5.830985462662656 11.680634416216918 H 0.0 **** 0.52
15852 M 16.146861712058488 6.51031722252252 11.539028368655742 M 0.0 **** -1.04
15853 O 13.4371991293008 5.090956944501134 14.442023616624311 O 0.0 **** 0.0
15854 H 12.516474036705851 5.300122634720103 14.59932400129017 H 0.0 **** 0.52
15855 H 13.546562911436531 5.185686170897467 13.495823302562798 H 0.0 **** 0.52
15856 M 13.333334377765041 5.129858751705497 14.341034167142354 M 0.0 **** -1.04
15857 O 33.465805594456214 7.245453664058282 16.789503258164938 O 0.0 **** 0.0
15858 H 34.2667784473051 6.778164174473858 16.552203829379046 H 0.0 **** 0.52
15859 H 33.289625875432684 7.815256087935502 16.04082706753143 H 0.0 **** 0.52
15860 M 33.54578738621657 7.258576535587153 16.66328541858732 M 0.0 **** -1.04
15861 O 41.76004749200038 42.387131150209974 18.49654343599422 O 0.0 **** 0.0
15862 H 42.29841302466237 42.19741030154391 17.728170988542047 H 0.0 **** 0.52
15863 H 42.1221426139843 41.8311721948102 19.18648887583124 H 0.0 **** 0.52
15864 M 41.875317801442655 42.29167521187143 18.48650367050973 M 0.0 **** -1.04
15865 O 2.7672672222117143 10.982026744395245 49.56026883551027 O 0.0 **** 0.0
15866 H 2.7771463315528138 10.629614657445273 50.450177294903476 H 0.0 **** 0.52
15867 H 3.1265310848506473 10.278597852317667 49.01957998752868 H 0.0 **** 0.52
15868 M 2.8145223428157635 10.846865749132258 49.604973966594116 M 0.0 **** -1.04
15869 O 48.0895824577783 26.224220463099996 1.596339225994953 O 0.0 **** 0.0
15870 H 47.678875957641395 27.0526186676187 1.3487408209540135 H 0.0 **** 0.52
15871 H 47.436902984243005 25.558496680231652 1.3794315353095428 H 0.0 **** 0.52
15872 M 47.95345533230569 26.24504476969646 1.5368766563790857 M 0.0 **** -1.04
15873 O 16.6337469358353 38.45799791653395 46.95431036188761 O 0.0 **** 0.0
15874 H 16.865138903196897 39.19548384711714 47.51893505476453 H 0.0 **** 0.52
15875 H 15.856751493897258 38.75357421255911 46.47981814046291 H 0.0 **** 0.52
15876 M 16.56390318507118 38.590243198836916 46.9658486465871 M 0.0 **** -1.04
15877 O 49.40409656051176 19.39061263682976 45.32147850873123 O 0.0 **** 0.0
15878 H 49.91244544478245 20.169757010511354 45.096213485263895 H 0.0 **** 0.52
15879 H 48.805478437323664 19.27308730289031 44.58386529970576 H 0.0 **** 0.52
15880 M 49.392540446861986 19.47530869767167 45.19821840365595 M 0.0 **** -1.04
15881 O 26.08966909916162 41.03643084075039 39.67716076131396 O 0.0 **** 0.0
15882 H 25.869925993935862 40.68405135527424 40.539582532558086 H 0.0 **** 0.52
15883 H 26.64288902748398 41.795415570504446 39.861871588675854 H 0.0 **** 0.52
15884 M 26.132357600749277 41.08848181207288 39.81120703162975 M 0.0 **** -1.04
15885 O 17.272717391908007 13.877109221247359 16.8194186758533 O 0.0 **** 0.0
15886 H 17.746724005270814 14.593294199478834 17.242058215183903 H 0.0 **** 0.52
15887 H 16.365746715250573 14.18043491751041 16.77908891593873 H 0.0 **** 0.52
15888 M 17.217292265725025 14.007619165334944 16.868358227433532 M 0.0 **** -1.04
15889 O 21.159333645099853 19.28724867778936 27.00775142410006 O 0.0 **** 0.0
15890 H 20.85828708435021 20.184180396839253 27.153056255752666 H 0.0 **** 0.52
15891 H 20.781514669995175 19.04110464899442 26.16341996676235 H 0.0 **** 0.52
15892 M 21.072430207768623 19.37055815275062 26.918266870289305 M 0.0 **** -1.04
15893 O 1.6772646153792294 13.397611507698208 35.841437824890065 O 0.0 **** 0.0
15894 H 1.5234324384081646 14.342020127039405 35.86704940217139 H 0.0 **** 0.52
15895 H 1.125130257183578 13.083858437032639 35.12524244117536 H 0.0 **** 0.52
15896 M 1.5868918377729244 13.4783428561677 35.75303378491998 M 0.0 **** -1.04
15897 O 13.85072308906711 12.84101918392748 3.1771474742665475 O 0.0 **** 0.0
15898 H 14.783547372304014 12.724867158844516 2.9966609537747715 H 0.0 **** 0.52
15899 H 13.712635107898478 12.403981709174257 4.0174800209262855 H 0.0 **** 0.52
15900 M 13.952458671468968 12.77020382669466 3.261615753391652 M 0.0 **** -1.04
15901 O 44.0253331931308 21.73761268170057 32.828672946151684 O 0.0 **** 0.0
15902 H 43.52096609452235 22.330612153821306 32.2717223002997 H 0.0 **** 0.52
15903 H 44.39878841501616 22.302919728837836 33.50483011987214 H 0.0 **** 0.52
15904 M 44.00857476869672 21.88589011414416 32.84393233235909 M 0.0 **** -1.04
15905 O 27.236233161867524 35.11080795409932 45.97134129659895 O 0.0 **** 0.0
15906 H 27.346528283329796 35.98129817424179 46.35384818410323 H 0.0 **** 0.52
15907 H 27.74289594465811 35.13934940345872 45.159733381306324 H 0.0 **** 0.52
15908 M 27.315211333006264 35.22589581640942 45.91641099739643 M 0.0 **** -1.04
15909 O 49.091860659383585 18.58847079467703 12.597463997920903 O 0.0 **** 0.0
15910 H 48.166519524354534 18.780026377303088 12.750038759840631 H 0.0 **** 0.52
15911 H 49.186165831523866 17.66351989491428 12.825061691555096 H 0.0 **** 0.52
15912 M 48.98547773295831 18.49458740572149 12.646130367062641 M 0.0 **** -1.04
15913 O 22.612363024725536 4.1161405987515725 34.923848101285685 O 0.0 **** 0.0
15914 H 22.150703193119824 3.2866907805538865 35.046774036694586 H 0.0 **** 0.52
15915 H 23.32991928554807 3.905181204294091 34.32648887789824 H 0.0 **** 0.52
15916 M 22.645120956614118 3.9829551426096614 34.863115023785305 M 0.0 **** -1.04
15917 O 34.79556926316976 23.777998695802278 29.58239171047276 O 0.0 **** 0.0
15918 H 34.16953895079702 23.782083382727343 30.306476737455625 H 0.0 **** 0.52
15919 H 34.6842704676259 24.631738138848842 29.1640967897845 H 0.0 **** 0.52
15920 M 34.70118116318608 23.887811204175907 29.621537102540657 M 0.0 **** -1.04
15921 O 26.690853189588164 17.23440100140548 4.004632499467391 O 0.0 **** 0.0
15922 H 26.97121053962635 17.472166008462693 3.1208353885473343 H 0.0 **** 0.52
15923 H 25.89864069683111 17.750972228590612 4.1522206086601585 H 0.0 **** 0.52
15924 M 26.625329578957572 17.3309656344651 3.91038871608626 M 0.0 **** -1.04
15925 O 48.205196245943824 22.586866972456672 10.362045732335417 O 0.0 **** 0.0
15926 H 48.39931459971865 21.695733167197297 10.07148395842643 H 0.0 **** 0.52
15927 H 48.32073767462788 22.560120409085098 11.311868329861346 H 0.0 **** 0.52
15928 M 48.244836363945495 22.469366807752593 10.446439588754808 M 0.0 **** -1.04
15929 O 47.691153156118595 18.62914140201508 8.429757391048865 O 0.0 **** 0.0
15930 H 47.208679545839544 17.858184167858155 8.728208010568931 H 0.0 **** 0.52
15931 H 47.012115179317135 19.24867947713969 8.162718190717184 H 0.0 **** 0.52
15932 M 47.54246512825775 18.609757501272256 8.433778283469266 M 0.0 **** -1.04
15933 O 22.704950832484894 5.387621058825317 10.326745901463019 O 0.0 **** 0.0
15934 H 23.052435528974772 6.276590391384033 10.254517693331552 H 0.0 **** 0.52
15935 H 22.14265081161507 5.4119134938203075 11.10099151550112 H 0.0 **** 0.52
15936 M 22.677451881287435 5.504530551256487 10.416612261996521 M 0.0 **** -1.04
15937 O 3.3886034784537102 9.75542358530494 2.270096138142489 O 0.0 **** 0.0
15938 H 2.78446770452758 9.13462681895539 1.8628369704434062 H 0.0 **** 0.52
15939 H 4.213828450441193 9.629680927670883 1.8016716937539465 H 0.0 **** 0.52
15940 M 3.4169058680730577 9.659857400559943 2.157997342715843 M 0.0 **** -1.04
15941 O 21.734015628114708 17.952155911118176 1.308591174806923 O 0.0 **** 0.0
15942 H 21.777326451221395 18.907711559940882 1.2730159268756378 H 0.0 **** 0.52
15943 H 21.25243613687083 17.70419865519438 0.5193971191257138 H 0.0 **** 0.52
15944 M 21.67791228614817 18.042737334775747 1.2030107002752044 M 0.0 **** -1.04
15945 O 27.484126111535556 35.5838759221716 33.04035834890601 O 0.0 **** 0.0
15946 H 27.475318187470094 35.16063299101797 32.181861806169444 H 0.0 **** 0.52
15947 H 26.593036961637296 35.47285592349214 33.37181469664325 H 0.0 **** 0.52
15948 M 27.368927519638202 35.515483667901435 32.97289017805709 M 0.0 **** -1.04
15949 O 36.9831124581527 37.779035716530096 29.90799980215562 O 0.0 **** 0.0
15950 H 36.84233072767599 37.26929416499986 29.110144092889783 H 0.0 **** 0.52
15951 H 36.37257504059683 38.51261598967737 29.8349706183183 H 0.0 **** 0.52
15952 M 36.88693418258516 37.8076897033827 29.796515222633076 M 0.0 **** -1.04
15953 O 21.24666121641119 37.86467167886151 6.477780696835373 O 0.0 **** 0.0
15954 H 21.624437177126666 38.61725878662318 6.9328931619425 H 0.0 **** 0.52
15955 H 20.310297644062345 38.057718747770345 6.431051896590858 H 0.0 **** 0.52
15956 M 21.17515496189108 37.98572491625197 6.530059340159225 M 0.0 **** -1.04
15957 O 6.772512773889069 8.897287862101761 29.439556994455078 O 0.0 **** 0.0
15958 H 6.074997162452291 9.53312517392474 29.598968585933175 H 0.0 **** 0.52
15959 H 6.494176619002523 8.112367331223947 29.911422277537373 H 0.0 **** 0.52
15960 M 6.6475913415595045 8.878203503083446 29.520369072633954 M 0.0 **** -1.04
15961 O 26.547820665498904 38.22527728565903 28.375498764626663 O 0.0 **** 0.0
15962 H 27.470482703152463 38.34465309231234 28.150391786462052 H 0.0 **** 0.52
15963 H 26.211972757280506 37.63114754122448 27.704346764466486 H 0.0 **** 0.52
15964 M 26.622940332372263 38.16450298473585 28.260766410588566 M 0.0 **** -1.04
15965 O 3.875976361617745 22.494797418690183 49.522716300810174 O 0.0 **** 0.0
15966 H 3.293598783183775 21.919724069908597 50.019058684797244 H 0.0 **** 0.52
15967 H 3.519377537894478 23.372640851229487 49.65857158661544 H 0.0 **** 0.52
15968 M 3.7557747694051287 22.53355583393329 49.60364526122858 M 0.0 **** -1.04
15969 O 6.2813754061952665 14.573560726282658 40.22332970805627 O 0.0 **** 0.0
15970 H 6.771231149783848 13.75128247803023 40.234659154992215 H 0.0 **** 0.52
15971 H 6.7075304949395536 15.115947133750616 40.88698363142373 H 0.0 **** 0.52
15972 M 6.398636155762878 14.537730787976887 40.3097357540303 M 0.0 **** -1.04
15973 O 16.536003536479818 35.34824782302231 45.81892783761925 O 0.0 **** 0.0
15974 H 16.568699231730758 36.10205931179059 45.229921683445 H 0.0 **** 0.52
15975 H 17.367681593168616 35.377007835410616 46.29191073621802 H 0.0 **** 0.52
15976 M 16.64665403984105 35.44842685413445 45.80407511422113 M 0.0 **** -1.04
15977 O 49.75788243226918 24.681237087083232 9.516909337566908 O 0.0 **** 0.0
15978 H 50.16573435829582 24.985812783916018 10.327538039027196 H 0.0 **** 0.52
15979 H 49.16833396848106 23.979777139462044 9.793704239581658 H 0.0 **** 0.52
15980 M 49.73462310570444 24.630431053954567 9.656113734719028 M 0.0 **** -1.04
15981 O 13.919571631217028 48.07648540432312 46.67466347766889 O 0.0 **** 0.0
15982 H 13.780739363958256 48.222485470411605 45.73890853630932 H 0.0 **** 0.52
15983 H 13.460253370839135 48.79991277469379 47.101171298257114 H 0.0 **** 0.52
15984 M 13.843000993884358 48.18778237312419 46.609474090594304 M 0.0 **** -1.04
15985 O 30.285668073985217 27.13340980309135 30.906594816497154 O 0.0 **** 0.0
15986 H 30.214702123448173 26.493991318362763 30.19783756160833 H 0.0 **** 0.52
15987 H 29.761387335825006 26.763521252679023 31.616905297279203 H 0.0 **** 0.52
15988 M 30.209469053683907 27.004205732548577 30.906793947847056 M 0.0 **** -1.04
15989 O 16.11768852247453 10.822754092517036 8.00723955250168 O 0.0 **** 0.0
15990 H 16.011676007803484 10.547474902671656 8.917849621343992 H 0.0 **** 0.52
15991 H 16.229309476829595 10.005837936508957 7.521011087148562 H 0.0 **** 0.52
15992 M 16.11840671668826 10.682939693452274 8.061565268191634 M 0.0 **** -1.04
15993 O 37.043445695663486 35.956268244602605 17.747929160427184 O 0.0 **** 0.0
15994 H 36.70818206970067 35.3381582617294 17.098493071580464 H 0.0 **** 0.52
15995 H 36.62607404598376 35.69265256825597 18.56801171322642 H 0.0 **** 0.52
15996 M 36.947099336140965 35.84339641062025 17.769773542524504 M 0.0 **** -1.04
15997 O 29.46644293630749 3.3081811615319765 41.89956363880513 O 0.0 **** 0.0
15998 H 28.718634870257635 3.9049512440238647 41.92918646881856 H 0.0 **** 0.52
15999 H 29.97460181029591 3.5211639480493635 42.682277635935435 H 0.0 **** 0.52
16000 M 29.435764333696444 3.4118396908501976 42.003553515655746 M 0.0 **** -1.04
16001 O 27.06418701459952 14.49423706375731 47.49361724193671 O 0.0 **** 0.0
16002 H 26.514563784096524 14.548394874407563 48.27541679122119 H 0.0 **** 0.52
16003 H 27.444342437009325 15.368375393698244 47.4064885899678 H 0.0 **** 0.52
16004 M 27.042493058306786 14.613069865626073 47.58254367066517 M 0.0 **** -1.04
16005 O 37.46139281672305 18.506655890149474 9.251325522427955 O 0.0 **** 0.0
16006 H 38.31773557974884 18.915583366099234 9.12608848462731 H 0.0 **** 0.52
16007 H 37.649728015180585 17.57042415533024 9.31636429677603 H 0.0 **** 0.52
16008 M 37.59512482274492 18.439154322942553 9.243619202230569 M 0.0 **** -1.04
16009 O 3.959777005021408 35.28564693921948 48.28969017812686 O 0.0 **** 0.0
16010 H 4.186985239048589 34.36297358671003 48.174454286105274 H 0.0 **** 0.52
16011 H 3.2759254292531566 35.4473907928026 47.63975550236309 H 0.0 **** 0.52
16012 M 3.9013206778140415 35.18823829328495 48.19173847409053 M 0.0 **** -1.04
16013 O 18.250087775366467 43.93481111598966 15.622908623838695 O 0.0 **** 0.0
16014 H 18.558589250372947 43.45795635144242 14.852411789654676 H 0.0 **** 0.52
16015 H 18.56889978052967 44.82834618173963 15.495699714275753 H 0.0 **** 0.52
16016 M 18.3303912739273 43.9881514998919 15.50799141538819 M 0.0 **** -1.04
16017 O 36.66852474451608 35.19336318630695 12.429163818601642 O 0.0 **** 0.0
16018 H 36.6969867788724 35.66001328465418 11.593906008818573 H 0.0 **** 0.52
16019 H 37.00392622536678 35.82297826438227 13.067379189102963 H 0.0 **** 0.52
16020 M 36.7151037755207 35.33369862930522 12.403940393633043 M 0.0 **** -1.04
16021 O 48.014306206721024 45.3647117204364 0.5841632193321269 O 0.0 **** 0.0
16022 H 48.884638982501954 45.0010772400949 0.42131621032723293 H 0.0 **** 0.52
16023 H 47.63579786657319 44.79184253773772 1.251082013444492 H 0.0 **** 0.52
16024 M 48.07726615477676 45.24482826530114 0.6486907051863389 M 0.0 **** -1.04
16025 O 49.93665898475308 34.43037624948945 16.941032075616498 O 0.0 **** 0.0
16026 H 49.74085021359103 33.68257452606532 17.505549365950372 H 0.0 **** 0.52
16027 H 50.03064845416195 34.05277009646061 16.066499101187304 H 0.0 **** 0.52
16028 M 49.923625014849996 34.28631002576641 16.901346476468355 M 0.0 **** -1.04
16029 O 4.9480378804074565 35.62680501177087 17.58164213239091 O 0.0 **** 0.0
16030 H 4.827764047075156 36.2855685491225 18.265595774372763 H 0.0 **** 0.52
16031 H 4.807309772265019 36.10238981873718 16.762958015496487 H 0.0 **** 0.52
16032 M 4.9146265695618085 35.77201626995118 17.564394009934766 M 0.0 **** -1.04
16033 O 47.3519303291487 21.795541500074044 23.712737631533795 O 0.0 **** 0.0
16034 H 47.605111741724116 21.255217214720634 22.964287550368645 H 0.0 **** 0.52
16035 H 48.14637974946925 21.858519736710424 24.242938184935046 H 0.0 **** 0.52
16036 M 47.48604000133316 21.73443466021259 23.68479880645629 M 0.0 **** -1.04
16037 O 24.274665249827244 12.688504651358038 12.259207338934733 O 0.0 **** 0.0
16038 H 24.2929146976234 12.813607100392268 13.208020142632524 H 0.0 **** 0.52
16039 H 23.38077394636339 12.401848887859153 12.072086166026228 H 0.0 **** 0.52
16040 M 24.162572153961122 12.667823995870542 12.356713750897018 M 0.0 **** -1.04
16041 O 35.73661833088801 19.626128347931058 14.832538992852903 O 0.0 **** 0.0
16042 H 34.82131846861607 19.77239020231454 15.071416395958948 H 0.0 **** 0.52
16043 H 36.20370849974236 20.375647126914657 15.20169683278715 H 0.0 **** 0.52
16044 M 35.679241172461545 19.74079952852601 14.910374593607628 M 0.0 **** -1.04
16045 O 5.524334512470826 49.61401487278223 47.187618675038394 O 0.0 **** 0.0
16046 H 4.995926505398041 50.33191210558167 47.536385780656815 H 0.0 **** 0.52
16047 H 5.943131011178168 49.228434807750844 47.957141530417005 H 0.0 **** 0.52
16048 M 5.51030180222167 49.65655558828366 47.33077366514595 M 0.0 **** -1.04
16049 O 24.299215604080498 45.47630238920721 32.61737823561177 O 0.0 **** 0.0
16050 H 23.92903134517536 45.62512309109291 33.48746089652077 H 0.0 **** 0.52
16051 H 24.47803967906297 46.35379288406848 32.27935407851034 H 0.0 **** 0.52
16052 M 24.274719638660333 45.60768299249393 32.68548848390188 M 0.0 **** -1.04
16053 O 23.424112916088244 19.678368545322854 31.993581474132643 O 0.0 **** 0.0
16054 H 23.956630217147993 19.10179551571322 32.541503327813736 H 0.0 **** 0.52
16055 H 23.98269535748352 19.879046156966638 31.24262007046774 H 0.0 **** 0.52
16056 M 23.56378767954556 19.630249726291694 31.96758999342832 M 0.0 **** -1.04
16057 O 16.620079624845147 1.0321604516974503 35.43334546417928 O 0.0 **** 0.0
16058 H 16.95304717565505 1.827651275056752 35.01794632228421 H 0.0 **** 0.52
16059 H 15.680593383943474 1.187458525060407 35.53069215669914 H 0.0 **** 0.52
16060 M 16.54243745424796 1.1538732545759558 35.39263081047296 M 0.0 **** -1.04
16061 O 37.996758678462704 1.4608557864603995 24.086091557296673 O 0.0 **** 0.0
16062 H 38.90566018776468 1.755845073107217 24.141841351297266 H 0.0 **** 0.52
16063 H 37.50914771802601 2.236765167289363 23.809633559442513 H 0.0 **** 0.52
16064 M 38.05068949348911 1.5979450892623035 24.05783835510871 M 0.0 **** -1.04
16065 O 25.799294378970544 20.158630858441576 15.81480301263422 O 0.0 **** 0.0
16066 H 25.88632785845196 20.38676763588639 14.889272048408749 H 0.0 **** 0.52
16067 H 26.69541956108357 20.173397190236745 16.150913010201826 H 0.0 **** 0.52
16068 M 25.925150789842125 20.189725194340646 15.739349801314154 M 0.0 **** -1.04
16069 O 17.606833983916324 40.030304035341665 34.554573984953976 O 0.0 **** 0.0
16070 H 17.2050641505285 39.19052554556674 34.77724412097668 H 0.0 **** 0.52
16071 H 18.397085510160046 40.068628203622225 35.09333245774635 H 0.0 **** 0.52
16072 M 17.65656465140261 39.927707970395126 34.65204587553706 M 0.0 **** -1.04
16073 O 9.656423146757525 44.71178224743031 34.71820739167776 O 0.0 **** 0.0
16074 H 10.024498373424123 43.82969695747504 34.76994183595669 H 0.0 **** 0.52
16075 H 8.787793987567454 44.587321292470925 34.33581853873704 H 0.0 **** 0.52
16076 M 9.592346790065442 44.58293195643455 34.67587889224325 M 0.0 **** -1.04
16077 O 12.419452131265137 36.488656618918455 14.396574170523035 O 0.0 **** 0.0
16078 H 12.723095255938562 36.95739969849376 13.619201751002281 H 0.0 **** 0.52
16079 H 11.618306565264428 36.047957111243726 14.11341635498302 H 0.0 **** 0.52
16080 M 12.35576510779098 36.49224571769933 14.260813604242037 M 0.0 **** -1.04
16081 O 9.390634727619883 0.07394282497500079 38.669551494279226 O 0.0 **** 0.0
16082 H 8.85471053281023 -0.6449207553202285 39.00458770674003 H 0.0 **** 0.52
16083 H 8.796942976978457 0.8243574019643739 38.64434145555423 H 0.0 **** 0.52
16084 M 9.246030171789577 0.07798118013091028 38.70921281914067 M 0.0 **** -1.04
16085 O 7.492821324196633 6.7921976133914335 3.2200316535040585 O 0.0 **** 0.0
16086 H 7.229719941229425 6.204794250814352 2.51153736067441 H 0.0 **** 0.52
16087 H 7.109784297659562 6.405268841349349 4.0073046628800455 H 0.0 **** 0.52
16088 M 7.410107320588091 6.667470417468617 3.2301162947600375 M 0.0 **** -1.04
16089 O 41.441523353084094 31.458343459814557 24.424956773850006 O 0.0 **** 0.0
16090 H 42.37267958751033 31.557174021489587 24.226442208356897 H 0.0 **** 0.52
16091 H 41.40262735808764 30.718931939989915 25.031576025090537 H 0.0 **** 0.52
16092 M 41.555744063894764 31.376340717589244 24.477198887546287 M 0.0 **** -1.04
16093 O 1.5134170796268975 47.89608394703083 42.101728357161306 O 0.0 **** 0.0
16094 H 1.7844900471812863 47.10578745250477 42.56882557990903 H 0.0 **** 0.52
16095 H 2.1395836056754405 47.97626394684253 41.38220290692688 H 0.0 **** 0.52
16096 M 1.6282754768364995 47.805180255626354 42.06941420774541 M 0.0 **** -1.04
16097 O 41.57202003521577 49.80566198305897 37.7980270257696 O 0.0 **** 0.0
16098 H 42.352463391367095 50.19814361148289 38.18930204719931 H 0.0 **** 0.52
16099 H 41.06868271306893 50.550043994540225 37.46821349932774 H 0.0 **** 0.52
16100 M 41.607493385617495 49.9511950024768 37.805894961358284 M 0.0 **** -1.04
16101 O 25.817483798875983 43.980823827771374 3.863794894454429 O 0.0 **** 0.0
16102 H 25.65965765392281 44.90015292769446 3.6489632238851613 H 0.0 **** 0.52
16103 H 26.340444962511746 44.00796669962468 4.665046112756819 H 0.0 **** 0.52
16104 M 25.864225807559826 44.10198387662781 3.938863768685522 M 0.0 **** -1.04
16105 O 26.590345594585802 29.867243199543786 33.98352633297435 O 0.0 **** 0.0
16106 H 26.06618424703869 30.042796939587284 33.20207670501335 H 0.0 **** 0.52
16107 H 27.09633937709423 30.668545713881947 34.11810704428989 H 0.0 **** 0.52
16108 M 26.588019122034623 29.9922930892261 33.90071874388427 M 0.0 **** -1.04
16109 O 24.752516542474783 14.194575064265592 36.34469158312161 O 0.0 **** 0.0
16110 H 24.01997264739939 14.333719932149819 35.744486952307525 H 0.0 **** 0.52
16111 H 24.90378836127222 13.249637885151678 36.32373554873123 H 0.0 **** 0.52
16112 M 24.678106244047996 14.091423512484866 36.26517518090624 M 0.0 **** -1.04
16113 O 18.962482909450003 13.268459329444756 40.08315489542298 O 0.0 **** 0.0
16114 H 18.345235022836164 12.95333584713635 39.422905199724305 H 0.0 **** 0.52
16115 H 19.12452977386846 14.181033097783734 39.84403494757807 H 0.0 **** 0.52
16116 M 18.90421151893362 13.344940437235925 39.968024755462515 M 0.0 **** -1.04
16117 O 0.14734535550723865 48.85341302031956 23.814534152382414 O 0.0 **** 0.0
16118 H 0.5107572932587927 48.63276671794087 24.67213247703416 H 0.0 **** 0.52
16119 H -0.09250332613862611 48.00973540624782 23.431245646162665 H 0.0 **** 0.52
16120 M 0.16316262003518572 48.71716607967409 23.87525244900363 M 0.0 **** -1.04
16121 O 49.71686701248404 13.319369122990468 31.14123025789263 O 0.0 **** 0.0
16122 H 49.483087895297636 12.39115785202947 31.141769027705813 H 0.0 **** 0.52
16123 H 50.661729573786246 13.328790690276994 30.988343899208473 H 0.0 **** 0.52
16124 M 49.80789542342899 13.201753046961949 31.121728251675282 M 0.0 **** -1.04
16125 O 29.819701546709332 45.817697185834284 39.89890317934302 O 0.0 **** 0.0
16126 H 28.993135812838545 45.667289319099325 40.35759223420658 H 0.0 **** 0.52
16127 H 30.47238025170719 45.88390560949316 40.59593667259256 H 0.0 **** 0.52
16128 M 29.797441263451727 45.80691869221555 40.046850430417834 M 0.0 **** -1.04
16129 O 7.083297265917424 14.947492216651057 29.610881899545525 O 0.0 **** 0.0
16130 H 6.456114486449714 14.455893994741707 29.080597580211148 H 0.0 **** 0.52
16131 H 7.529925343832381 14.281351342799715 30.133384145075397 H 0.0 **** 0.52
16132 M 7.060183421942978 14.79928708342433 29.6098852632137 M 0.0 **** -1.04
16133 O 45.78670643548909 1.903793215833565 6.714986736487758 O 0.0 **** 0.0
16134 H 45.035842296504896 1.3224785694907897 6.5945459012750245 H 0.0 **** 0.52
16135 H 45.57622294257753 2.6787637081256426 6.194077986439182 H 0.0 **** 0.52
16136 M 45.6636414726071 1.9285838450241486 6.632885807533297 M 0.0 **** -1.04
16137 O 0.2978644217864286 6.708788512319654 15.159762332135813 O 0.0 **** 0.0
16138 H -0.41748763197767147 7.293910930678755 15.409024707777817 H 0.0 **** 0.52
16139 H 0.39054037530457464 6.112847201535509 15.903061932793582 H 0.0 **** 0.52
16140 M 0.2181540300360183 6.707403284230726 15.286823549256354 M 0.0 **** -1.04
16141 O 37.29394767302235 27.359704254746674 17.38137873847147 O 0.0 **** 0.0
16142 H 37.075318217100474 26.780641720485324 16.651230162889277 H 0.0 **** 0.52
16143 H 38.241146430215544 27.268358501206222 17.484819861659375 H 0.0 **** 0.52
16144 M 37.38721364801022 27.27388284848043 17.30115218579681 M 0.0 **** -1.04
16145 O 8.688642612103886 9.46323526940104 7.0455931663156885 O 0.0 **** 0.0
16146 H 8.859166659758497 10.349473842165565 7.364547280417715 H 0.0 **** 0.52
16147 H 8.642306996825857 9.555429530866874 6.09397324477222 H 0.0 **** 0.52
16148 M 8.704540793117564 9.588487404278759 6.96460404966397 M 0.0 **** -1.04
16149 O 21.274852039592975 24.734689144027058 44.563317682593585 O 0.0 **** 0.0
16150 H 20.615755986360686 25.413286109246613 44.70936062488799 H 0.0 **** 0.52
16151 H 21.119800574996738 24.095841483381605 45.259062570623655 H 0.0 **** 0.52
16152 M 21.17063067630367 24.739778062594887 44.67107755363537 M 0.0 **** -1.04
16153 O 32.74657389911938 39.02183728574777 41.99536544905996 O 0.0 **** 0.0
16154 H 31.866793328388127 39.00578889653221 42.37213638650755 H 0.0 **** 0.52
16155 H 33.296958311695214 38.5961564586973 42.652710711314846 H 0.0 **** 0.52
16156 M 32.704407139013654 38.96529016133183 42.127744969143194 M 0.0 **** -1.04
16157 O 16.40446561403533 37.777578612598695 35.8519936796489 O 0.0 **** 0.0
16158 H 16.896961654282165 37.45148958191058 36.605214672897596 H 0.0 **** 0.52
16159 H 16.079430537818567 36.98874566068702 35.41803197878512 H 0.0 **** 0.52
16160 M 16.425903258093086 37.63485518078331 35.892862217463225 M 0.0 **** -1.04
16161 O 26.72629844126736 43.73959199607686 16.88574817716006 O 0.0 **** 0.0
16162 H 27.211043278411452 44.16650720696217 16.17935325560146 H 0.0 **** 0.52
16163 H 27.256363419859206 42.975641358724566 17.112989690183834 H 0.0 **** 0.52
16164 M 26.85620621983994 43.696447431626694 16.824410247314294 M 0.0 **** -1.04
16165 O 6.914563546723329 9.747191213313362 19.7230162996735 O 0.0 **** 0.0
16166 H 7.49348389605408 10.459454505395476 19.99460596529594 H 0.0 **** 0.52
16167 H 6.147620487987531 9.832060129363107 20.289430786876395 H 0.0 **** 0.52
16168 M 6.890493900857614 9.849234763963898 19.830291746866816 M 0.0 **** -1.04
16169 O 1.310799639173723 26.198527750108642 28.745326297239284 O 0.0 **** 0.0
16170 H 1.0800469966934614 25.557182790788904 29.417381486041013 H 0.0 **** 0.52
16171 H 1.196882272916504 27.04680111549447 29.173909569771947 H 0.0 **** 0.52
16172 M 1.2666777996421246 26.225017830258977 28.886222080795687 M 0.0 **** -1.04
16173 O 48.763312662563834 38.747355638072584 7.803459468496531 O 0.0 **** 0.0
16174 H 47.88377356335067 38.62511105946727 8.160804458872143 H 0.0 **** 0.52
16175 H 48.62061918921782 38.95147074195036 6.87922774695531 H 0.0 **** 0.52
16176 M 48.63245434090565 38.757836613231916 7.730890616979299 M 0.0 **** -1.04
16177 O 8.52398686347718 12.063739634654796 8.362896124145303 O 0.0 **** 0.0
16178 H 7.61534234254246 11.821864391886317 8.183757426472676 H 0.0 **** 0.52
16179 H 8.672172948502151 11.787059237383144 9.267173810341534 H 0.0 **** 0.52
16180 M 8.426638606098262 11.997357440188932 8.455722579410923 M 0.0 **** -1.04
16181 O 38.069635010119356 35.5259990001935 36.58450864542473 O 0.0 **** 0.0
16182 H 38.11508357356156 35.63530259921217 35.634658283667015 H 0.0 **** 0.52
16183 H 37.13654655060012 35.41933321007561 36.769433061787694 H 0.0 **** 0.52
16184 M 37.95600596749064 35.52633681396699 36.48658770864854 M 0.0 **** -1.04
16185 O 18.964261535941596 48.800218567957025 16.87623827642481 O 0.0 **** 0.0
16186 H 19.316970825911937 49.143666156829326 17.697133148166774 H 0.0 **** 0.52
16187 H 18.01684328083398 48.90976232759603 16.95764174584613 H 0.0 **** 0.52
16188 M 18.888131338837493 48.85820795411003 16.991743095581782 M 0.0 **** -1.04
16189 O 32.1153205248038 9.165050219204232 19.65066083726385 O 0.0 **** 0.0
16190 H 32.55744010102238 9.14208514771589 20.499325604249528 H 0.0 **** 0.52
16191 H 32.80043202766525 8.951320871736385 19.01728055434772 H 0.0 **** 0.52
16192 M 32.25962049226656 9.134750319032243 19.67822023591138 M 0.0 **** -1.04
16193 O 27.494703434793283 47.57829555030423 38.17097179494021 O 0.0 **** 0.0
16194 H 27.70424683471411 48.44450157511117 38.52026820523891 H 0.0 **** 0.52
16195 H 28.25388479481026 47.03958186447337 38.3938135187198 H 0.0 **** 0.52
16196 M 27.618712036461726 47.620218516744146 38.24421225091323 M 0.0 **** -1.04
16197 O 49.478057278747535 14.236694796460522 45.60018527060174 O 0.0 **** 0.0
16198 H 48.57413355206439 13.977402083910269 45.77884229089029 H 0.0 **** 0.52
16199 H 49.539468596989806 14.250449890006276 44.64505793066058 H 0.0 **** 0.52
16200 M 49.37020437651694 14.20526290675099 45.50078747845464 M 0.0 **** -1.04
16201 O 34.22686701252822 49.99564660996263 20.12593355217179 O 0.0 **** 0.0
16202 H 33.583019386157524 50.07861467965589 20.82935732726207 H 0.0 **** 0.52
16203 H 35.06937727298111 49.94103537821966 20.576956931886382 H 0.0 **** 0.52
16204 M 34.25229863814826 49.99927631753348 20.27371723800779 M 0.0 **** -1.04
16205 O 24.006995940897248 10.31943928625071 46.040571348408776 O 0.0 **** 0.0
16206 H 24.31399563618107 9.900942885179475 46.84483649400899 H 0.0 **** 0.52
16207 H 24.400759395030533 11.19171041086495 46.05852484888872 H 0.0 **** 0.52
16208 M 24.09670298241171 10.377528161594377 46.14582550916282 M 0.0 **** -1.04
16209 O 15.551003544386688 46.6857339823243 34.16014641511474 O 0.0 **** 0.0
16210 H 15.667316554397967 47.09714931959283 33.30373765770024 H 0.0 **** 0.52
16211 H 15.130360014493384 47.35914504285373 34.69475472658812 H 0.0 **** 0.52
16212 M 15.512044572770506 46.82460515472001 34.118952110920475 M 0.0 **** -1.04
16213 O 25.8919512608932 30.299967879205383 48.869278111167034 O 0.0 **** 0.0
16214 H 25.51665700731779 31.17930211733113 48.82285856160383 H 0.0 **** 0.52
16215 H 25.408009491276417 29.869385858822877 49.57399696467392 H 0.0 **** 0.52
16216 M 25.781958112423844 30.357414125155007 48.953548710222 M 0.0 **** -1.04
16217 O 40.04326986193435 18.25823248432357 40.52352150938657 O 0.0 **** 0.0
16218 H 40.69991855560481 18.505846767400513 41.174465454825196 H 0.0 **** 0.52
16219 H 39.208190783545284 18.32954778302617 40.985892360463794 H 0.0 **** 0.52
16220 M 40.020428267206974 18.299060057363704 40.66603962769776 M 0.0 **** -1.04
16221 O 30.391450261505984 16.06038043819786 42.328823148752406 O 0.0 **** 0.0
16222 H 29.90088179926894 15.239843936369217 42.28096589889509 H 0.0 **** 0.52
16223 H 31.216153796834472 15.87344004380379 41.88033021742439 H 0.0 **** 0.52
16224 M 30.43422326614436 15.9314104946621 42.265284747256885 M 0.0 **** -1.04
16225 O 1.0464423139872494 37.861930544838614 5.621300946595238 O 0.0 **** 0.0
16226 H 1.6971956994800763 37.643953356015146 4.954041870493779 H 0.0 **** 0.52
16227 H 1.2874008850670648 37.32477971932985 6.376044152102227 H 0.0 **** 0.52
16228 M 1.1605925102019796 37.76526402250908 5.63250053064399 M 0.0 **** -1.04
16229 O 47.827034053319366 26.218018713228094 38.40745246913266 O 0.0 **** 0.0
16230 H 47.89644677828435 25.54540673699093 39.084950900311 H 0.0 **** 0.52
16231 H 46.997441282621466 26.658827551813808 38.59100911411275 H 0.0 **** 0.52
16232 M 47.729721625294225 26.188345487153512 38.51767881360245 M 0.0 **** -1.04
16233 O 12.219179987238235 33.5355249464571 36.17032854376766 O 0.0 **** 0.0
16234 H 12.559078804276908 34.28549691573234 35.68223039117135 H 0.0 **** 0.52
16235 H 12.992376780985133 33.00644153672542 36.366454348908185 H 0.0 **** 0.52
16236 M 12.361669590853808 33.56380185509073 36.132952485446594 M 0.0 **** -1.04
16237 O 36.62397974877147 13.462515706428476 6.503828589158999 O 0.0 **** 0.0
16238 H 36.23580340798755 12.824190584601574 7.102233761684182 H 0.0 **** 0.52
16239 H 37.339918073411326 13.855223337389056 7.003270018014128 H 0.0 **** 0.52
16240 M 36.665937319052226 13.431073287729845 6.644366448344634 M 0.0 **** -1.04
16241 O 23.59379810261978 2.8377968880989854 0.8740690249235996 O 0.0 **** 0.0
16242 H 23.251563358870882 3.7289631243427337 0.8038783775602454 H 0.0 **** 0.52
16243 H 24.39576279963536 2.9285371709674806 1.3887018680833165 H 0.0 **** 0.52
16244 M 23.652649229923046 2.963492700130402 0.9309634091710635 M 0.0 **** -1.04
16245 O 13.265306252904779 27.25883815059861 13.612354741945623 O 0.0 **** 0.0
16246 H 12.52346307843279 26.65607588222172 13.56160520030442 H 0.0 **** 0.52
16247 H 13.895774530888104 26.917396441485767 12.978198178992791 H 0.0 **** 0.52
16248 M 13.251048393182877 27.137968268788246 13.524678730293026 M 0.0 **** -1.04
16249 O 38.57611104321231 44.239485961623295 38.413257549896684 O 0.0 **** 0.0
16250 H 37.903531076352444 43.60431088673909 38.16745813560565 H 0.0 **** 0.52
16251 H 39.39191880860836 43.73881638366506 38.40933345002456 H 0.0 **** 0.52
16252 M 38.59444635235048 44.09408351820429 38.38128941999211 M 0.0 **** -1.04
16253 O 13.758294704989858 46.256907090525345 20.28583415830732 O 0.0 **** 0.0
16254 H 14.310481737482206 45.52771381826197 20.003709995364744 H 0.0 **** 0.52
16255 H 13.1451138236908 45.86662810520591 20.90866675953999 H 0.0 **** 0.52
16256 M 13.750487098802438 46.11360055871659 20.329449256938037 M 0.0 **** -1.04
16257 O 24.376380040554256 16.406222888779535 14.835360153300186 O 0.0 **** 0.0
16258 H 24.85530186358265 15.89310376646247 15.486183780478669 H 0.0 **** 0.52
16259 H 23.484468825624997 16.060110082592125 14.865847195162544 H 0.0 **** 0.52
16260 M 24.323512419346258 16.296230170117187 14.922576792768098 M 0.0 **** -1.04
16261 O 47.93217140463204 44.13665520706124 43.87879199230459 O 0.0 **** 0.0
16262 H 47.66872492193133 45.050757933833914 43.98481292108948 H 0.0 **** 0.52
16263 H 47.16967942147612 43.711071700897875 43.4867296066991 H 0.0 **** 0.52
16264 M 47.80083829083122 44.19919179443726 43.84217460920935 M 0.0 **** -1.04
16265 O 16.93043633350831 47.51181478446704 12.528958519280216 O 0.0 **** 0.0
16266 H 16.64985001076947 46.655869618706895 12.852776620314266 H 0.0 **** 0.52
16267 H 16.569125485142578 48.13652746240153 13.157780161681082 H 0.0 **** 0.52
16268 M 16.848265374267186 47.48221401037336 12.650908164066337 M 0.0 **** -1.04
16269 O 6.56891954597533 42.29980091379336 1.9577539808040285 O 0.0 **** 0.0
16270 H 6.819544496668345 43.118255445787106 1.5293308214450718 H 0.0 **** 0.52
16271 H 6.246632924542032 41.745708203724284 1.2468797887478686 H 0.0 **** 0.52
16272 M 6.559745873082173 42.3336421833518 1.8119100077529495 M 0.0 **** -1.04
16273 O 39.34867664703379 27.35736468147483 32.39853313938943 O 0.0 **** 0.0
16274 H 38.910805173766434 28.203256290200667 32.3038473789603 H 0.0 **** 0.52
16275 H 40.27494905915758 27.576577666953636 32.49949702199615 H 0.0 **** 0.52
16276 M 39.41119834020225 27.493711452687524 32.39933671340705 M 0.0 **** -1.04
16277 O 3.425606854503414 1.5327811799781341 7.358942195987076 O 0.0 **** 0.0
16278 H 3.3378152450051104 1.6947486302659969 6.419640461078814 H 0.0 **** 0.52
16279 H 3.984053948842238 0.7575908960621163 7.417640416526254 H 0.0 **** 0.52
16280 M 3.4858569832572996 1.4542814078246087 7.246213975771468 M 0.0 **** -1.04
16281 O 45.30338422547896 14.33827526489111 43.831205332559726 O 0.0 **** 0.0
16282 H 45.895724180463546 14.082996552412334 44.538449858529376 H 0.0 **** 0.52
16283 H 44.45061076437695 13.993648632571674 44.096231225348106 H 0.0 **** 0.52
16284 M 45.27004512802379 14.26147990689389 43.95566858031164 M 0.0 **** -1.04
16285 O 35.056430077171406 30.341600720140423 23.599857282720066 O 0.0 **** 0.0
16286 H 34.79666678739759 30.70043169516372 22.75133414197306 H 0.0 **** 0.52
16287 H 35.898812071913234 30.75551034078983 23.78773974918002 H 0.0 **** 0.52
16288 M 35.13101220726888 30.44052153856077 23.515287594703707 M 0.0 **** -1.04
16289 O 15.481526526011372 7.807102736458091 46.376826762606576 O 0.0 **** 0.0
16290 H 16.032885545754326 8.589094597183546 46.34998867831049 H 0.0 **** 0.52
16291 H 14.874272409111711 7.966298946178156 47.0994113097349 H 0.0 **** 0.52
16292 M 15.474370859869168 7.927585989758377 46.46589064232923 M 0.0 **** -1.04
16293 O 0.34351215705274996 16.60106294883239 39.25127768245759 O 0.0 **** 0.0
16294 H -0.2814589743326579 16.75062260071468 38.54186103423865 H 0.0 **** 0.52
16295 H -0.20136530650323436 16.46448169873769 40.02631484967725 H 0.0 **** 0.52
16296 M 0.19375714370073638 16.602724323363134 39.25967746362105 M 0.0 **** -1.04
16297 O 11.810995227187496 40.709918820573414 15.20193054644543 O 0.0 **** 0.0
16298 H 11.909742015189629 40.43270043519295 16.112769335787988 H 0.0 **** 0.52
16299 H 11.953598844812635 41.656216773900276 15.222275495286045 H 0.0 **** 0.52
16300 M 11.841891114098882 40.7955690910732 15.321133232863422 M 0.0 **** -1.04
16301 O 33.35394673677137 6.553014488508203 47.43436640383448 O 0.0 **** 0.0
16302 H 33.724010353368264 7.35112198120528 47.811602800694075 H 0.0 **** 0.52
16303 H 33.91032926947319 6.364401526696661 46.67865954533803 H 0.0 **** 0.52
16304 M 33.472543470643494 6.6310372180306505 47.38591779706688 M 0.0 **** -1.04
16305 O 26.37235313644626 20.56941125081281 26.79864508148603 O 0.0 **** 0.0
16306 H 25.6053144649199 20.000850444649135 26.866598999338883 H 0.0 **** 0.52
16307 H 26.011318133766114 21.454464245178638 26.748022057931593 H 0.0 **** 0.52
16308 M 26.227945931020532 20.60992645316888 26.80086336126482 M 0.0 **** -1.04
16309 O 38.88923421945311 12.377980887429038 2.1727753252096846 O 0.0 **** 0.0
16310 H 38.226035183589666 12.98883342107808 2.494107745400491 H 0.0 **** 0.52
16311 H 39.40423283434887 12.153391208561457 2.9477358989229216 H 0.0 **** 0.52
16312 M 38.87026278265592 12.427428190774965 2.3131141936946804 M 0.0 **** -1.04
16313 O 41.02999704763592 38.90434877701732 33.719831627562286 O 0.0 **** 0.0
16314 H 41.63860054507352 38.54448458365671 33.07459654848096 H 0.0 **** 0.52
16315 H 41.46976369276562 39.68575973665774 34.0548397990427 H 0.0 **** 0.52
16316 M 41.164201437367154 38.9583112144356 33.680118970200525 M 0.0 **** -1.04
16317 O 30.96924005126782 5.378404138896698 4.448440591640406 O 0.0 **** 0.0
16318 H 30.491419707091417 5.378667989222741 5.277847464988554 H 0.0 **** 0.52
16319 H 30.5372385258171 6.051357611347193 3.922384145875256 H 0.0 **** 0.52
16320 M 30.85277191888271 5.464584171768159 4.487273659791114 M 0.0 **** -1.04
16321 O 43.531901495533255 38.898905499447864 42.41835930985923 O 0.0 **** 0.0
16322 H 43.66119454415083 39.57716111007412 41.755426135414794 H 0.0 **** 0.52
16323 H 43.0409990495614 39.33470460549451 43.115009391170204 H 0.0 **** 0.52
16324 M 43.48561142204367 39.04151838737401 42.422675327547935 M 0.0 **** -1.04
16325 O 39.76526461198645 20.23914524208361 20.515169034921048 O 0.0 **** 0.0
16326 H 39.325193966006786 21.06823748461936 20.702712004652337 H 0.0 **** 0.52
16327 H 40.62186011997834 20.494247660336114 20.172539067627728 H 0.0 **** 0.52
16328 M 39.81858524914251 20.377936069218066 20.495316201832942 M 0.0 **** -1.04
16329 O 37.32507062505334 20.36559129439982 3.214353659129543 O 0.0 **** 0.0
16330 H 37.50851901452191 20.10577158859899 4.1171653590081405 H 0.0 **** 0.52
16331 H 36.567444167152686 19.83782931529717 2.9619695861290722 H 0.0 **** 0.52
16332 M 37.251568356763244 20.264770989290245 3.2976162975866643 M 0.0 **** -1.04
16333 O 32.42959811538548 20.011565292999663 23.177564240045854 O 0.0 **** 0.0
16334 H 31.750556602014854 20.661296985028773 22.995956883990516 H 0.0 **** 0.52
16335 H 32.54750217630741 20.046559150744837 24.12682790219579 H 0.0 **** 0.52
16336 M 32.357764941915 20.099218439491285 23.275834176731895 M 0.0 **** -1.04
16337 O 45.08673607207215 13.170681141810253 28.41134614821461 O 0.0 **** 0.0
16338 H 45.47876178229196 12.913251766634879 29.245776903014754 H 0.0 **** 0.52
16339 H 45.090831539840224 14.127700589362952 28.42937121824376 H 0.0 **** 0.52
16340 M 45.13744418601939 13.260237367606969 28.52047071192947 M 0.0 **** -1.04
16341 O 12.394172074979735 16.92826234624087 49.17991281897442 O 0.0 **** 0.0
16342 H 11.63326046141784 17.105836960758715 49.73282297137147 H 0.0 **** 0.52
16343 H 13.11541062180686 17.388412101907075 49.60922342082034 H 0.0 **** 0.52
16344 M 12.389094120949522 17.009898988281574 49.30564932184925 M 0.0 **** -1.04
16345 O 1.4499837657916217 35.66871147181429 13.372639255997305 O 0.0 **** 0.0
16346 H 1.473669986927142 36.425518558305725 13.958225068002207 H 0.0 **** 0.52
16347 H 1.0489097820948459 34.97381927719576 13.894648693450916 H 0.0 **** 0.52
16348 M 1.4016734397571042 35.67663695721586 13.514425258527824 M 0.0 **** -1.04
16349 O 6.081266659728428 24.634218474887806 47.88445148485296 O 0.0 **** 0.0
16350 H 6.218899748567885 23.75289532830692 48.23166166685592 H 0.0 **** 0.52
16351 H 5.665221919839453 25.1124606803544 48.6016826460398 H 0.0 **** 0.52
16352 M 6.045626711905406 24.582618732704095 48.020713723010694 M 0.0 **** -1.04
16353 O 6.063348289562697 37.484530363854795 4.135247770614823 O 0.0 **** 0.0
16354 H 6.916849838934674 37.91779989148069 4.128858483943883 H 0.0 **** 0.52
16355 H 5.846628923001802 37.394935328431636 5.063275162285824 H 0.0 **** 0.52
16356 M 6.144864384838073 37.52852550333624 4.253228680863294 M 0.0 **** -1.04
16357 O 29.01828314214098 15.560003614364222 7.498613743381945 O 0.0 **** 0.0
16358 H 29.73095356187582 15.966153627789573 7.005287537421225 H 0.0 **** 0.52
16359 H 29.402935148704596 15.354397674202385 8.3506689027301 H 0.0 **** 0.52
16360 M 29.158754190213045 15.585676129184193 7.544535272356434 M 0.0 **** -1.04
16361 O 10.109785310882344 3.336167125121264 45.552075600116765 O 0.0 **** 0.0
16362 H 10.270006025003815 4.221891684355661 45.87772920669203 H 0.0 **** 0.52
16363 H 10.668303064124093 2.7771678340648904 46.092266221806284 H 0.0 **** 0.52
16364 M 10.201793272681076 3.377992400066063 45.662914346065264 M 0.0 **** -1.04
16365 O 0.6188190403036486 21.250668118088548 23.0316139648926 O 0.0 **** 0.0
16366 H 0.13368061362695016 20.99215856858173 22.248005421023237 H 0.0 **** 0.52
16367 H 1.2838401074429697 21.860389044689885 22.71190227604322 H 0.0 **** 0.52
16368 M 0.6418467415166234 21.295627941999566 22.8903750204164 M 0.0 **** -1.04
16369 O 39.07432351665839 24.23890353708 40.33913484213982 O 0.0 **** 0.0
16370 H 39.270322048487905 23.30760164755754 40.23670841800204 H 0.0 **** 0.52
16371 H 38.86667267059399 24.53918103633477 39.45429377222324 H 0.0 **** 0.52
16372 M 39.07283246320656 24.158124614780547 40.21275214371656 M 0.0 **** -1.04
16373 O 14.815065913475797 13.625061443382037 10.048390647642151 O 0.0 **** 0.0
16374 H 15.143394569347748 13.482236778987726 9.16068022388518 H 0.0 **** 0.52
16375 H 14.230068652706874 12.88484280398319 10.209893835004422 H 0.0 **** 0.52
16376 M 14.782208897352549 13.51202062305427 9.95542739557932 M 0.0 **** -1.04
16377 O 18.802615359477826 23.620034503843232 20.733236268692163 O 0.0 **** 0.0
16378 H 18.323548029972272 24.39858930798461 21.017096057100023 H 0.0 **** 0.52
16379 H 19.705456563938668 23.919498003011824 20.62633385256163 H 0.0 **** 0.52
16380 M 18.856863206877534 23.758034475701248 20.755889083896655 M 0.0 **** -1.04
16381 O 48.784037357066104 20.56952874734463 1.2222631769686032 O 0.0 **** 0.0
16382 H 49.37009158895525 20.402304302639916 1.9603726771755063 H 0.0 **** 0.52
16383 H 48.92298754886782 21.492450876952972 1.0098089140103852 H 0.0 **** 0.52
16384 M 48.876847476382984 20.666267577066115 1.2895533438989943 M 0.0 **** -1.04
16385 O 43.31874643951238 16.612968319679823 46.705753818410926 O 0.0 **** 0.0
16386 H 43.46917884830877 15.81245671753885 46.20298246846835 H 0.0 **** 0.52
16387 H 42.83076080935039 17.182045256615098 46.11056319977314 H 0.0 **** 0.52
16388 M 43.275535278942264 16.58334175193434 46.56520089913913 M 0.0 **** -1.04
16389 O 32.08918419667552 25.23258639198227 27.358075887983176 O 0.0 **** 0.0
16390 H 32.82603707065375 25.564241883312405 27.871186167045224 H 0.0 **** 0.52
16391 H 32.48987784889126 24.655484293048463 26.70797891675292 H 0.0 **** 0.52
16392 M 32.234804212093366 25.201166082313623 27.340540226489523 M 0.0 **** -1.04
16393 O 46.74506841340618 25.66179920060212 21.197422589731843 O 0.0 **** 0.0
16394 H 47.519691644811815 25.463387368938488 21.723560042913334 H 0.0 **** 0.52
16395 H 46.93702056925136 26.51032472345492 20.79819009734743 H 0.0 **** 0.52
16396 M 46.868802307891194 25.74502240439902 21.213668021715748 M 0.0 **** -1.04
16397 O 47.638072371283634 26.040539896232488 48.00038312088927 O 0.0 **** 0.0
16398 H 48.16081751753691 25.247494857421756 48.1189018598918 H 0.0 **** 0.52
16399 H 48.250802042255074 26.75812674657101 48.16119315038657 H 0.0 **** 0.52
16400 M 47.78342677215726 26.0308800142368 48.036140986660435 M 0.0 **** -1.04
16401 O 37.20220724581782 15.896045047285714 41.297944181094834 O 0.0 **** 0.0
16402 H 37.257298117936934 15.375933416841091 40.496273076120225 H 0.0 **** 0.52
16403 H 36.2860625659326 16.169495635602573 41.34412599254692 H 0.0 **** 0.52
16404 M 37.09198190347175 15.864469201729333 41.20123177711214 M 0.0 **** -1.04
16405 O 3.7067003142948067 18.47087523607299 46.44140595655661 O 0.0 **** 0.0
16406 H 3.6820034918307982 19.28694969371616 45.941765112293496 H 0.0 **** 0.52
16407 H 3.1671556741207567 17.8632984533499 45.93547134849575 H 0.0 **** 0.52
16408 M 3.634470243120262 18.497565359870137 46.31267867775827 M 0.0 **** -1.04
16409 O 28.11614968200853 38.10163911352385 32.21970469300138 O 0.0 **** 0.0
16410 H 27.865511640658784 37.2591680314184 32.5987177387529 H 0.0 **** 0.52
16411 H 27.286359010769257 38.51055067251965 31.97380558377905 H 0.0 **** 0.52
16412 M 27.977841569669998 38.04613851701146 32.23674490714633 M 0.0 **** -1.04
16413 O 31.744808362105093 36.8929603167647 39.589729555652255 O 0.0 **** 0.0
16414 H 31.819214084415282 36.98077701348037 40.53998281621976 H 0.0 **** 0.52
16415 H 31.907920903957784 37.77429594882715 39.25376716985264 H 0.0 **** 0.52
16416 M 31.77521432668326 37.01702357161415 39.66836712191832 M 0.0 **** -1.04
16417 O 49.3296864060113 9.987440707661612 33.28036498708148 O 0.0 **** 0.0
16418 H 49.66401776719356 10.877834773474026 33.38829339272066 H 0.0 **** 0.52
16419 H 50.00215414927689 9.539105551456252 32.76751948663191 H 0.0 **** 0.52
16420 M 49.45856911942361 10.044029369963173 33.22853089969301 M 0.0 **** -1.04
16421 O 7.790308934839168 29.272634359850265 39.93866368904716 O 0.0 **** 0.0
16422 H 6.976200830596946 29.774548418299293 39.97789112034076 H 0.0 **** 0.52
16423 H 8.082757153583527 29.36020626943151 39.03145156022222 H 0.0 **** 0.52
16424 M 7.723530296898139 29.348095388106742 39.827550503676434 M 0.0 **** -1.04
16425 O 13.897459913617702 12.039174111262929 49.668693328885674 O 0.0 **** 0.0
16426 H 14.21370267398467 12.925278527404528 49.49251657449074 H 0.0 **** 0.52
16427 H 13.155466035192006 11.926612320859977 49.074551407716676 H 0.0 **** 0.52
16428 M 13.84295803716978 12.138196948801939 49.57008197873578 M 0.0 **** -1.04
16429 O 12.344754705100746 6.0991708244557685 37.155171615445475 O 0.0 **** 0.0
16430 H 12.251238173759251 6.2202994658157635 38.10005855242896 H 0.0 **** 0.52
16431 H 13.138180565671801 5.572598510132238 37.05808530307376 H 0.0 **** 0.52
16432 M 12.434352294779348 6.047268334319909 37.26370149739731 M 0.0 **** -1.04
16433 O 9.666699245830973 44.258546295654824 13.243839997440858 O 0.0 **** 0.0
16434 H 10.129396141852157 44.09625202743834 12.421768690858123 H 0.0 **** 0.52
16435 H 8.74679767945193 44.091741549755454 13.038449073524959 H 0.0 **** 0.52
16436 M 9.608171249777257 44.216417632252615 13.112312026047377 M 0.0 **** -1.04
16437 O 5.090777883191838 34.379510152267585 41.742143282453114 O 0.0 **** 0.0
16438 H 4.742305062224698 34.08521097206337 40.90060707618508 H 0.0 **** 0.52
16439 H 5.937159466785305 34.77167485204823 41.5274922756131 H 0.0 **** 0.52
16440 M 5.154517140261192 34.3920382912309 41.60693788799202 M 0.0 **** -1.04
16441 O 46.12755916384377 8.216792424255 27.812791151730366 O 0.0 **** 0.0
16442 H 46.04692903867693 8.616851917538698 26.946951397097536 H 0.0 **** 0.52
16443 H 46.54532079645927 8.889798543829562 28.350161894274184 H 0.0 **** 0.52
16444 M 46.17071635221201 8.354158172366645 27.770743100707016 M 0.0 **** -1.04
16445 O 3.292869266295675 38.5249541297193 8.433837906752942 O 0.0 **** 0.0
16446 H 2.805294207359374 39.01734992525542 7.773501116740732 H 0.0 **** 0.52
16447 H 2.618480237811127 38.087055426516265 8.953138447660422 H 0.0 **** 0.52
16448 M 3.1441229363278254 38.53193065209838 8.415784030089142 M 0.0 **** -1.04
16449 O 37.853839407091876 19.991111669146793 38.51591100856027 O 0.0 **** 0.0
16450 H 37.99588404280754 20.894049787730903 38.23173704533868 H 0.0 **** 0.52
16451 H 36.92797167592091 19.958084975337126 38.75654801481911 H 0.0 **** 0.52
16452 M 37.753500385140285 20.102471434284297 38.510338080396885 M 0.0 **** -1.04
16453 O 37.80630336004781 3.550986562405374 19.417725294508717 O 0.0 **** 0.0
16454 H 36.9732402946066 3.7389061278961875 18.98538190745608 H 0.0 **** 0.52
16455 H 37.63755423605935 2.7606586389878274 19.930692733188156 H 0.0 **** 0.52
16456 M 37.67805871034032 3.473870459178612 19.428046790210274 M 0.0 **** -1.04
16457 O 25.46241774332536 45.50836756318524 18.700298278639515 O 0.0 **** 0.0
16458 H 25.64014005428567 44.88446843940572 17.996456756178397 H 0.0 **** 0.52
16459 H 25.151121053961507 44.96836550255316 19.42674196944461 H 0.0 **** 0.52
16460 M 25.44531898749869 45.359374266572004 18.703191473155535 M 0.0 **** -1.04
16461 O 32.454502369606125 43.44887339723276 21.39454747741137 O 0.0 **** 0.0
16462 H 32.33407606414467 44.39532629495442 21.31739115777703 H 0.0 **** 0.52
16463 H 31.572941433485727 43.105934836139994 21.541082491611053 H 0.0 **** 0.52
16464 M 32.326234917356274 43.526130505645945 21.403429151912803 M 0.0 **** -1.04
16465 O 4.508551019784406 40.92564325664915 42.63543673433784 O 0.0 **** 0.0
16466 H 3.654168640256721 40.88598523522474 42.2056839959509 H 0.0 **** 0.52
16467 H 5.107713078322881 40.50695755253098 42.017426846808696 H 0.0 **** 0.52
16468 M 4.475879782758469 40.86696962025288 42.50130979765386 M 0.0 **** -1.04
16469 O 12.614315219258422 27.139293538878636 43.965557593824734 O 0.0 **** 0.0
16470 H 12.485220960580165 26.19277082927275 44.02603019547361 H 0.0 **** 0.52
16471 H 12.967464685636585 27.388392344273257 44.8196443312562 H 0.0 **** 0.52
16472 M 12.642997223357447 27.050014824611658 44.08263272200622 M 0.0 **** -1.04
16473 O 2.392549622218056 16.46738170692602 12.864408242565128 O 0.0 **** 0.0
16474 H 2.457653922946831 17.067979843468144 12.121930454796518 H 0.0 **** 0.52
16475 H 2.6874248110740138 16.98184274871952 13.615811084329744 H 0.0 **** 0.52
16476 M 2.4386313421536987 16.610123855686222 12.865550507023618 M 0.0 **** -1.04
16477 O 33.37564828912695 30.351677493865747 41.05975278103124 O 0.0 **** 0.0
16478 H 32.535480196320535 29.937442076380783 41.25661771913697 H 0.0 **** 0.52
16479 H 33.453613906817466 31.054632698702672 41.70473679352388 H 0.0 **** 0.52
16480 M 33.27807692551189 30.388636493803805 41.16752006136186 M 0.0 **** -1.04
16481 O 24.712715407406733 42.05968004049734 37.2979235320704 O 0.0 **** 0.0
16482 H 24.922783650544318 41.91214447255596 38.22005824188392 H 0.0 **** 0.52
16483 H 25.555924355583272 42.00586775716882 36.84811052084403 H 0.0 **** 0.52
16484 M 24.847547815406955 42.03390402750859 37.358386585386285 M 0.0 **** -1.04
16485 O 44.537889771692555 2.1623699766556754 42.08012991426896 O 0.0 **** 0.0
16486 H 43.642725405179576 2.4295144487727782 41.87145846779102 H 0.0 **** 0.52
16487 H 45.08946488549879 2.821088053343658 41.65813037709074 H 0.0 **** 0.52
16488 M 44.49390620579681 2.2808917156551516 41.999396026274994 M 0.0 **** -1.04
16489 O 9.589833522302538 11.070483416702235 19.228609669562744 O 0.0 **** 0.0
16490 H 9.772708690386745 10.151845798751141 19.031403091650393 H 0.0 **** 0.52
16491 H 9.42805387896061 11.471647666023324 18.374722961355854 H 0.0 **** 0.52
16492 M 9.592534525202199 11.004240126609146 19.094055709282983 M 0.0 **** -1.04
16493 O 19.40538422969368 31.90264846728435 30.69638430113883 O 0.0 **** 0.0
16494 H 18.485791482043933 32.07550032514118 30.898125174960715 H 0.0 **** 0.52
16495 H 19.888606615431755 32.55965289098148 31.197452618870035 H 0.0 **** 0.52
16496 M 19.34952365659179 32.00888107695684 30.786352470009287 M 0.0 **** -1.04
16497 O 6.904122359544154 38.98955833156441 45.53448779064344 O 0.0 **** 0.0
16498 H 6.096911851655385 39.03315318609701 45.02190632436043 H 0.0 **** 0.52
16499 H 6.6853305593866 38.42995206845524 46.27960452154096 H 0.0 **** 0.52
16500 M 6.77278152377847 38.923502637471856 45.56425572784673 M 0.0 **** -1.04
16501 O 6.756842107832443 40.59723930931647 11.49820800498105 O 0.0 **** 0.0
16502 H 6.283407592561489 39.91014766823186 11.029173384161815 H 0.0 **** 0.52
16503 H 7.242080690734922 40.132044638920995 12.179651648547171 H 0.0 **** 0.52
16504 M 6.758352754788081 40.44973227272424 11.525399425972957 M 0.0 **** -1.04
16505 O 6.470729496142207 45.89584189154592 47.0390802884153 O 0.0 **** 0.0
16506 H 6.704868562428309 46.36364608570886 47.84068346282699 H 0.0 **** 0.52
16507 H 6.774178309170668 46.46492270664984 46.3317658213245 H 0.0 **** 0.52
16508 M 6.539547911432079 46.028576274219404 47.051150415807854 M 0.0 **** -1.04
16509 O 32.688170622184835 18.478745705822668 43.75825380977663 O 0.0 **** 0.0
16510 H 31.92952607705772 18.97023823754843 44.0730890130812 H 0.0 **** 0.52
16511 H 32.97453412948533 18.953281788739677 42.97784283340554 H 0.0 **** 0.52
16512 M 32.62771238017403 18.602409278825924 43.69865391882027 M 0.0 **** -1.04
16513 O 7.797881381220186 39.239723669579455 21.809239062672646 O 0.0 **** 0.0
16514 H 7.357316197017799 39.40501184017876 20.975686253401566 H 0.0 **** 0.52
16515 H 8.119316781163874 40.09808415908927 22.08514560190027 H 0.0 **** 0.52
16516 M 7.782631742352779 39.37076343341944 21.737853185419677 M 0.0 **** -1.04
16517 O 23.357608815527595 35.62082619349751 11.395131771185493 O 0.0 **** 0.0
16518 H 23.91102200577519 35.48631550877546 12.164462359759671 H 0.0 **** 0.52
16519 H 23.582358489542678 36.49926958360025 11.0884530832412 H 0.0 **** 0.52
16520 M 23.457223270197158 35.7160588294846 11.454356689757148 M 0.0 **** -1.04
16521 O 35.14075595438235 40.32674145175432 48.57347285571945 O 0.0 **** 0.0
16522 H 35.99538934559591 40.250623300187506 48.99778000079757 H 0.0 **** 0.52
16523 H 34.84145130593593 39.423129513094935 48.47282987749912 H 0.0 **** 0.52
16524 M 35.21184458065477 40.20132421622629 48.61490614361961 M 0.0 **** -1.04
16525 O 37.81001106781861 1.064274027885027 26.911004626902827 O 0.0 **** 0.0
16526 H 37.86721134793857 1.283227969123324 25.980941925528892 H 0.0 **** 0.52
16527 H 38.61533451167118 0.5801692762960329 27.093557616020945 H 0.0 **** 0.52
16528 M 37.92042523034764 1.030331265250929 26.815314167954238 M 0.0 **** -1.04
16529 O 34.35920634368391 41.43218179560977 24.29451635797608 O 0.0 **** 0.0
16530 H 34.94370711261325 40.748821605738534 23.966481143501586 H 0.0 **** 0.52
16531 H 33.49598545659151 41.19145806279463 23.958167798809935 H 0.0 **** 0.52
16532 M 34.32352636831252 41.31388735098135 24.209467254697127 M 0.0 **** -1.04
16533 O 21.293839461129732 42.681620946802276 8.763336973390006 O 0.0 **** 0.0
16534 H 20.526754899680633 43.0347533107473 8.31266073806002 H 0.0 **** 0.52
16535 H 21.989869382692667 43.31365274183256 8.583596359251047 H 0.0 **** 0.52
16536 M 21.284742737935318 42.80773430980456 8.682635360572279 M 0.0 **** -1.04
16537 O 14.902265615993496 43.45518056444812 42.17864176025645 O 0.0 **** 0.0
16538 H 14.052759790858255 43.02955949253018 42.29446197150761 H 0.0 **** 0.52
16539 H 15.538051919824456 42.742112572490555 42.2381281784553 H 0.0 **** 0.52
16540 M 14.874907003678388 43.30941475492918 42.2010830428283 M 0.0 **** -1.04
16541 O 31.864788600566452 6.298490545615206 1.052649539757764 O 0.0 **** 0.0
16542 H 32.763465334325346 6.480855709424073 1.327152466783807 H 0.0 **** 0.52
16543 H 31.53937334569904 7.136661847859291 0.7243171027256141 H 0.0 **** 0.52
16544 M 31.938172896280896 6.429131812426478 1.0457584610737292 M 0.0 **** -1.04
16545 O 37.8694034987999 34.234010478135474 41.512635760934984 O 0.0 **** 0.0
16546 H 36.91794596354367 34.32723306171993 41.56024657973042 H 0.0 **** 0.52
16547 H 38.052308730903114 34.11241717383141 40.58097614950864 H 0.0 **** 0.52
16548 M 37.77101896907443 34.23037890705777 41.39946708263929 M 0.0 **** -1.04
16549 O 25.9460885132984 36.57379417589367 26.10752582699731 O 0.0 **** 0.0
16550 H 25.077706986347984 36.40083364854163 25.743895594074473 H 0.0 **** 0.52
16551 H 26.084048729653354 35.87195954371808 26.74362552861208 H 0.0 **** 0.52
16552 M 25.85258500366554 36.46180915310083 26.142405295778076 M 0.0 **** -1.04
16553 O 19.16136578970991 6.580107795351353 29.462088697612284 O 0.0 **** 0.0
16554 H 20.09295253323801 6.405917177327872 29.32780408662222 H 0.0 **** 0.52
16555 H 19.140648740968523 7.3236665424600815 30.064516160865736 H 0.0 **** 0.52
16556 M 19.277968412920675 6.6529941764051514 29.522016465985843 M 0.0 **** -1.04
16557 O 23.16226642766005 18.273586947380494 22.69733561451925 O 0.0 **** 0.0
16558 H 23.456103598961533 18.35850635385563 21.790319861903175 H 0.0 **** 0.52
16559 H 23.96452682520128 18.11893554031475 23.196023992244065 H 0.0 **** 0.52
16560 M 23.30258112740302 18.264660019941786 22.645064482443058 M 0.0 **** -1.04
16561 O 33.399889252499975 31.106480787599097 25.741206098698182 O 0.0 **** 0.0
16562 H 33.835200461017166 30.589311784093084 25.063511952542285 H 0.0 **** 0.52
16563 H 32.472264098567486 31.076780013651188 25.506988964370485 H 0.0 **** 0.52
16564 M 33.33686699498496 31.036474018094964 25.62446950045107 M 0.0 **** -1.04
16565 O 17.66619068095808 14.647186319102765 8.91296075629801 O 0.0 **** 0.0
16566 H 17.10277469405144 14.966879733382306 8.208271392406981 H 0.0 **** 0.52
16567 H 17.989487289706602 13.803236901140213 8.597591759933103 H 0.0 **** 0.52
16568 M 17.635453116855423 14.580074873735892 8.782380291990364 M 0.0 **** -1.04
16569 O 35.40880576257578 23.785285738649623 13.701316718462492 O 0.0 **** 0.0
16570 H 34.992234001760906 23.40903863245855 14.476645440175094 H 0.0 **** 0.52
16571 H 35.78795866688626 24.608805873652177 14.00837733111798 H 0.0 **** 0.52
16572 M 35.40401505293396 23.842541901909065 13.839876161763685 M 0.0 **** -1.04
16573 O 46.34647669042102 28.60480600912086 25.713765021580343 O 0.0 **** 0.0
16574 H 46.88679352668622 29.2632224029872 26.150543204134042 H 0.0 **** 0.52
16575 H 45.61247185155941 29.099739385388496 25.349749649155555 H 0.0 **** 0.52
16576 M 46.32168208304128 28.752449750046733 25.72307946693741 M 0.0 **** -1.04
16577 O 48.47657232163874 9.846408223187666 8.142923865151957 O 0.0 **** 0.0
16578 H 49.377522490210914 10.04910730695154 8.3947785686806 H 0.0 **** 0.52
16579 H 48.55995019832751 9.144532674529067 7.497441418229116 H 0.0 **** 0.52
16580 M 48.602578960436496 9.782508286562347 8.0925347320062 M 0.0 **** -1.04
16581 O 44.2720730113611 5.19137253979311 26.13842177180817 O 0.0 **** 0.0
16582 H 43.521745490031634 5.449860655216415 26.67360451186523 H 0.0 **** 0.52
16583 H 44.22033259572519 4.236434173150582 26.09787609882809 H 0.0 **** 0.52
16584 M 44.169398667165055 5.102217675343558 26.20174200979654 M 0.0 **** -1.04
16585 O 37.55333705886907 47.04330223756074 23.422883195199386 O 0.0 **** 0.0
16586 H 38.46574239693543 47.33268950091245 23.42309083469232 H 0.0 **** 0.52
16587 H 37.3743268347411 46.813240238399025 24.33461510103174 H 0.0 **** 0.52
16588 M 37.647221125393735 47.05089689254331 23.539622648815 M 0.0 **** -1.04
16589 O 18.418502299576073 29.733399508287015 42.01628019470143 O 0.0 **** 0.0
16590 H 17.626526011963943 29.816769682995503 42.54736496791793 H 0.0 **** 0.52
16591 H 19.053362431077012 29.313160017725046 42.59643646157102 H 0.0 **** 0.52
16592 M 18.39839032607184 29.690275960980387 42.15853344725287 M 0.0 **** -1.04
16593 O 20.90164326443637 29.432182526584143 30.729172442717633 O 0.0 **** 0.0
16594 H 20.45353411020625 30.274391613744353 30.651000447517195 H 0.0 **** 0.52
16595 H 20.20323725031345 28.781349575161766 30.65935641162543 H 0.0 **** 0.52
16596 M 20.754875460961728 29.456681683060445 30.710228149984186 M 0.0 **** -1.04
16597 O 31.167078602911566 44.045562347433204 38.11390150310187 O 0.0 **** 0.0
16598 H 31.80137610610981 44.69215853137683 37.80437324662566 H 0.0 **** 0.52
16599 H 30.593341616327937 44.53522005808788 38.70321353048851 H 0.0 **** 0.52
16600 M 31.174831499920064 44.191016229076226 38.149717504902156 M 0.0 **** -1.04
16601 O 15.515025936238507 8.905688127176731 13.547430483852642 O 0.0 **** 0.0
16602 H 15.46426764941829 8.48604135157828 14.406237803880325 H 0.0 **** 0.52
16603 H 15.661873471460371 8.184019689724181 12.935990000465024 H 0.0 **** 0.52
16604 M 15.527326627847284 8.759585595296599 13.579096516603324 M 0.0 **** -1.04
16605 O 10.35748026314754 23.30147218017045 11.184853542075263 O 0.0 **** 0.0
16606 H 9.976352613573022 22.489795466672717 11.519745994788689 H 0.0 **** 0.52
16607 H 10.656268834651984 23.766598160551457 11.966270662989583 H 0.0 **** 0.52
16608 M 10.346939961590193 23.25710963417521 11.327755621814863 M 0.0 **** -1.04
16609 O 0.268658449845078 4.477375814427428 8.017842726772045 O 0.0 **** 0.0
16610 H -0.27320884508043264 3.696358092445623 7.905504390332709 H 0.0 **** 0.52
16611 H 0.3288752396795154 4.855883598576594 7.140725464459855 H 0.0 **** 0.52
16612 M 0.2070007318307077 4.425849697675256 7.8911796986119285 M 0.0 **** -1.04
16613 O 13.165829549635678 48.04480942192646 11.627874679600879 O 0.0 **** 0.0
16614 H 13.324450781707228 48.28679673832845 12.540294825585448 H 0.0 **** 0.52
16615 H 12.2984579476547 47.64001998598035 11.634252423419042 H 0.0 **** 0.52
16616 M 13.075100601941186 48.02396857605851 11.74549248489734 M 0.0 **** -1.04
16617 O 7.086742963875186 4.270343644520294 36.061672963012214 O 0.0 **** 0.0
16618 H 6.325285006325175 4.693164829108463 36.45870331053256 H 0.0 **** 0.52
16619 H 6.8406831119661815 4.144439859987958 35.14525002784371 H 0.0 **** 0.52
16620 M 6.957767590276977 4.308353171164606 35.995184528758756 M 0.0 **** -1.04
16621 O 44.33414783402631 47.03253548947236 15.902091233263148 O 0.0 **** 0.0
16622 H 44.93692619480284 47.10221434075011 15.161798528080649 H 0.0 **** 0.52
16623 H 44.007174373105094 47.9230196647209 16.029976807693522 H 0.0 **** 0.52
16624 M 44.36945475766819 47.15544831425005 15.823695129507152 M 0.0 **** -1.04
16625 O 13.560120480710545 15.374010874546428 22.661942051331867 O 0.0 **** 0.0
16626 H 13.598535767154942 16.33035291880239 22.67472801996552 H 0.0 **** 0.52
16627 H 12.64537623480475 15.173196089524893 22.464087916585598 H 0.0 **** 0.52
16628 M 13.447939476056717 15.470727741417534 22.638250914835304 M 0.0 **** -1.04
16629 O 6.8361113547350785 46.65497301364451 31.187480799969094 O 0.0 **** 0.0
16630 H 6.422357868249009 45.81328459788989 30.996176325912035 H 0.0 **** 0.52
16631 H 7.770329583222842 46.50047575919373 31.047496132085485 H 0.0 **** 0.52
16632 M 6.902737601298074 46.527448982544655 31.145071702655265 M 0.0 **** -1.04
16633 O 0.4249632903626974 23.58056122056863 30.162699623511656 O 0.0 **** 0.0
16634 H -0.46396103636844543 23.48857009788141 30.505600633135884 H 0.0 **** 0.52
16635 H 0.9276477650020567 22.902419987529004 30.6139876251182 H 0.0 **** 0.52
16636 M 0.3755195052549638 23.481974727155993 30.264365747844302 M 0.0 **** -1.04
16637 O 1.5267831414451802 38.66975917898424 44.400600995756754 O 0.0 **** 0.0
16638 H 0.9173074238216146 37.936814931867126 44.48755142921822 H 0.0 **** 0.52
16639 H 1.2202178510130408 39.14660379831443 43.62932587644973 H 0.0 **** 0.52
16640 M 1.409518514151463 38.63697607859521 44.31299845673222 M 0.0 **** -1.04
16641 O 12.727876415664959 38.37043855558281 2.5670898526555703 O 0.0 **** 0.0
16642 H 12.278023091723185 39.21257907135464 2.4988186858035135 H 0.0 **** 0.52
16643 H 12.023106117924826 37.72320874822269 2.5920263218744424 H 0.0 **** 0.52
16644 M 12.580069623391331 38.3953895163686 2.561541934158214 M 0.0 **** -1.04
16645 O 26.614893235389715 45.90978074999567 46.87396307588092 O 0.0 **** 0.0
16646 H 26.350921839229244 46.73580299805854 46.46870516220389 H 0.0 **** 0.52
16647 H 26.699665393586855 45.29941472909189 46.141504206688744 H 0.0 **** 0.52
16648 M 26.59195368501122 45.937387168863275 46.728321672410864 M 0.0 **** -1.04
16649 O 48.57271013660379 32.50751630835098 31.687533396894008 O 0.0 **** 0.0
16650 H 48.415078947190175 32.32350778596702 30.761508212312904 H 0.0 **** 0.52
16651 H 49.29632632904324 33.13410081495205 31.687918728276454 H 0.0 **** 0.52
16652 M 48.645163298086565 32.564171196959755 31.569039508575294 M 0.0 **** -1.04
16653 O 46.398727667494605 29.06168514908364 13.251506053147125 O 0.0 **** 0.0
16654 H 46.44843389061563 30.001505228798386 13.076873438913863 H 0.0 **** 0.52
16655 H 45.54922852490177 28.796663846217513 12.89888322800088 H 0.0 **** 0.52
16656 M 46.29634456653993 29.148067904440094 13.184011131694245 M 0.0 **** -1.04
16657 O 27.210057017603507 1.8769342999842493 26.272220043552895 O 0.0 **** 0.0
16658 H 27.905576092231865 1.504276633802931 26.81407609812085 H 0.0 **** 0.52
16659 H 27.550947944625356 1.8307824873293086 25.378971439442942 H 0.0 **** 0.52
16660 M 27.342730683278493 1.8233208287254286 26.227237315735103 M 0.0 **** -1.04
16661 O 39.33214547752198 25.686686381858117 12.279105389769178 O 0.0 **** 0.0
16662 H 39.83484285134674 26.498245254480082 12.349088810238158 H 0.0 **** 0.52
16663 H 38.57713857268057 25.917950907286 11.738079637445225 H 0.0 **** 0.52
16664 M 39.29984725302891 25.820181170745112 12.218806010289626 M 0.0 **** -1.04
16665 O 37.671079382753476 9.971045343181629 28.36821153510769 O 0.0 **** 0.0
16666 H 38.4255678657787 9.431741616106052 28.131297734850136 H 0.0 **** 0.52
16667 H 36.91196482384991 9.426125123926695 28.160759369716253 H 0.0 **** 0.52
16668 M 37.67048759585176 9.832250645560592 28.311326668705966 M 0.0 **** -1.04
16669 O 29.941900869692507 15.316202333565833 17.60292728757565 O 0.0 **** 0.0
16670 H 29.400933554678257 14.82099314775074 16.987824189485533 H 0.0 **** 0.52
16671 H 30.770642166763476 14.838135505932032 17.632415663449972 H 0.0 **** 0.52
16672 M 29.978739353482815 15.191610727693162 17.527960430491277 M 0.0 **** -1.04
16673 O 43.7941717165239 27.78347022477628 43.81941228282978 O 0.0 **** 0.0
16674 H 43.219304735116914 28.140445193491814 44.4964097110279 H 0.0 **** 0.52
16675 H 44.24272705312195 28.547891988813436 43.457907592694205 H 0.0 **** 0.52
16676 M 43.77800182869897 27.927022531225123 43.85979931641643 M 0.0 **** -1.04
16677 O 39.61046342085893 47.49733694058215 1.8804894210863665 O 0.0 **** 0.0
16678 H 40.40965018454196 46.970860659252274 1.8992829079490292 H 0.0 **** 0.52
16679 H 39.401730853196874 47.64971137674044 2.8021410947148553 H 0.0 **** 0.52
16680 M 39.686049377813724 47.44944724365769 2.0008786223658888 M 0.0 **** -1.04
16681 O 14.776966257654621 44.522020217781986 30.092218193326644 O 0.0 **** 0.0
16682 H 14.242924588781861 45.315831249623216 30.122101161869754 H 0.0 **** 0.52
16683 H 14.167210396787937 43.832283044701015 29.830132773825312 H 0.0 **** 0.52
16684 M 14.630546089895375 44.535342310537885 30.06249365681281 M 0.0 **** -1.04
16685 O 2.3839962572588007 16.85774744659839 44.5384044068498 O 0.0 **** 0.0
16686 H 1.5472287763973398 16.851246429273587 45.00317016984908 H 0.0 **** 0.52
16687 H 2.2349921755789026 17.427536552304247 43.78384071227495 H 0.0 **** 0.52
16688 M 2.2578047748700527 16.9298545984132 44.50130644056209 M 0.0 **** -1.04
16689 O 13.845238657099603 16.25847336311609 10.291250879237765 O 0.0 **** 0.0
16690 H 14.013132659813419 15.31816382955777 10.353370708864936 H 0.0 **** 0.52
16691 H 12.91218472480728 16.322715243619076 10.087507975613832 H 0.0 **** 0.52
16692 M 13.747288611105278 16.14632571539984 10.273121561699128 M 0.0 **** -1.04
16693 O 31.60519991200006 48.719280675236625 37.6134003515653 O 0.0 **** 0.0
16694 H 31.60655319635211 48.71106060331395 36.65623867652258 H 0.0 **** 0.52
16695 H 31.940099348691092 47.85752138462859 37.861273543444355 H 0.0 **** 0.52
16696 M 31.648243497042756 48.60791274735267 37.52260272191825 M 0.0 **** -1.04
16697 O 44.6745933542803 39.35452051757003 36.012886844242054 O 0.0 **** 0.0
16698 H 44.43812666289307 39.25696222884415 35.09050128977236 H 0.0 **** 0.52
16699 H 44.08804435308605 38.75611609473736 36.47559658968234 H 0.0 **** 0.52
16700 M 44.569237547846136 39.26542887860302 35.954042890178954 M 0.0 **** -1.04
16701 O 6.202461382612338 10.245226842178042 13.313322194935978 O 0.0 **** 0.0
16702 H 6.344602979487334 9.686218811608619 14.077216247986911 H 0.0 **** 0.52
16703 H 5.401647460761738 9.906087607689479 12.913435165041733 H 0.0 **** 0.52
16704 M 6.118143473798876 10.130252470790055 13.359919608396751 M 0.0 **** -1.04
16705 O 8.692522880845774 2.2329843914348633 20.604240686268135 O 0.0 **** 0.0
16706 H 9.290246303773966 2.3987077935575827 21.33327458529659 H 0.0 **** 0.52
16707 H 7.887060786214351 1.9248339942536417 21.019575587763015 H 0.0 **** 0.52
16708 M 8.665929819287289 2.2147524323864425 20.750734264162176 M 0.0 **** -1.04
16709 O 14.894270244793196 19.863356732785007 34.45898020269572 O 0.0 **** 0.0
16710 H 15.182085257964065 20.74710409469671 34.23010672960309 H 0.0 **** 0.52
16711 H 14.034733562765197 19.77660219685168 34.04679168588792 H 0.0 **** 0.52
16712 M 14.821082653421882 19.96538209594718 34.376915756838265 M 0.0 **** -1.04
@<TRIPOS>BOND
1 1 2 11
2 1 3 11
3 1 4 12
4 5 6 11
5 5 7 11
6 5 8 12
7 12 9 11
8 12 10 11
9 12 11 12
10 13 14 11
11 13 15 11
12 13 16 12
13 17 18 11
14 17 19 11
15 17 20 12
16 21 22 11
17 21 23 11
18 21 24 12
19 25 26 11
20 25 27 11
21 25 28 12
22 29 30 11
23 29 31 11
24 29 32 12
25 33 34 11
26 33 35 11
27 33 36 12
28 37 38 11
29 37 39 11
30 37 40 12
31 41 42 11
32 41 43 11
33 41 44 12
34 45 46 11
35 45 47 11
36 45 48 12
37 49 50 11
38 49 51 11
39 49 52 12
40 53 54 11
41 53 55 11
42 53 56 12
43 57 58 11
44 57 59 11
45 57 60 12
46 61 62 11
47 61 63 11
48 61 64 12
49 65 66 11
50 65 67 11
51 65 68 12
52 69 70 11
53 69 71 11
54 69 72 12
55 73 74 11
56 73 75 11
57 73 76 12
58 77 78 11
59 77 79 11
60 77 80 12
61 81 82 11
62 81 83 11
63 81 84 12
64 85 86 11
65 85 87 11
66 85 88 12
67 89 90 11
68 89 91 11
69 89 92 12
70 93 94 11
71 93 95 11
72 93 96 12
73 98 99 11
74 98 100 11
75 98 97 12
76 101 102 11
77 101 103 11
78 101 104 12
79 105 106 11
80 105 107 11
81 105 108 12
82 109 110 11
83 109 111 11
84 109 112 12
85 113 114 11
86 113 115 11
87 113 116 12
88 117 118 11
89 117 119 11
90 117 120 12
91 121 122 11
92 121 123 11
93 121 124 12
94 125 126 11
95 125 127 11
96 125 128 12
97 129 130 11
98 129 131 11
99 129 132 12
100 133 134 11
101 133 135 11
102 133 136 12
103 137 138 11
104 137 139 11
105 137 140 12
106 141 142 11
107 141 143 11
108 141 144 12
109 145 146 11
110 145 147 11
111 145 148 12
112 149 150 11
113 149 151 11
114 149 152 12
115 153 154 11
116 153 155 11
117 153 156 12
118 157 158 11
119 157 159 11
120 157 160 12
121 161 162 11
122 161 163 11
123 161 164 12
124 165 166 11
125 165 167 11
126 165 168 12
127 169 170 11
128 169 171 11
129 169 172 12
130 173 174 11
131 173 175 11
132 173 176 12
133 177 178 11
134 177 179 11
135 177 180 12
136 181 182 11
137 181 183 11
138 181 184 12
139 185 186 11
140 185 187 11
141 185 188 12
142 189 190 11
143 189 191 11
144 189 192 12
145 193 194 11
146 193 195 11
147 193 196 12
148 197 198 11
149 197 199 11
150 197 200 12
151 201 202 11
152 201 203 11
153 201 204 12
154 205 206 11
155 205 207 11
156 205 208 12
157 209 210 11
158 209 211 11
159 209 212 12
160 213 214 11
161 213 215 11
162 213 216 12
163 217 218 11
164 217 219 11
165 217 220 12
166 221 222 11
167 221 223 11
168 221 224 12
169 225 226 11
170 225 227 11
171 225 228 12
172 229 230 11
173 229 231 11
174 229 232 12
175 233 234 11
176 233 235 11
177 233 236 12
178 237 238 11
179 237 239 11
180 237 240 12
181 241 242 11
182 241 243 11
183 241 244 12
184 245 246 11
185 245 247 11
186 245 248 12
187 249 250 11
188 249 251 11
189 249 252 12
190 253 254 11
191 253 255 11
192 253 256 12
193 257 258 11
194 257 259 11
195 257 260 12
196 261 262 11
197 261 263 11
198 261 264 12
199 265 266 11
200 265 267 11
201 265 268 12
202 269 270 11
203 269 271 11
204 269 272 12
205 273 274 11
206 273 275 11
207 273 276 12
208 277 278 11
209 277 279 11
210 277 280 12
211 281 282 11
212 281 283 11
213 281 284 12
214 285 286 11
215 285 287 11
216 285 288 12
217 289 290 11
218 289 291 11
219 289 292 12
220 293 294 11
221 293 295 11
222 293 296 12
223 297 298 11
224 297 299 11
225 297 300 12
226 301 302 11
227 301 303 11
228 301 304 12
229 305 306 11
230 305 307 11
231 305 308 12
232 309 310 11
233 309 311 11
234 309 312 12
235 313 314 11
236 313 315 11
237 313 316 12
238 317 318 11
239 317 319 11
240 317 320 12
241 321 322 11
242 321 323 11
243 321 324 12
244 325 326 11
245 325 327 11
246 325 328 12
247 329 330 11
248 329 331 11
249 329 332 12
250 333 334 11
251 333 335 11
252 333 336 12
253 337 338 11
254 337 339 11
255 337 340 12
256 341 342 11
257 341 343 11
258 341 344 12
259 345 346 11
260 345 347 11
261 345 348 12
262 349 350 11
263 349 351 11
264 349 352 12
265 353 354 11
266 353 355 11
267 353 356 12
268 357 358 11
269 357 359 11
270 357 360 12
271 361 362 11
272 361 363 11
273 361 364 12
274 365 366 11
275 365 367 11
276 365 368 12
277 369 370 11
278 369 371 11
279 369 372 12
280 373 374 11
281 373 375 11
282 373 376 12
283 377 378 11
284 377 379 11
285 377 380 12
286 381 382 11
287 381 383 11
288 381 384 12
289 385 386 11
290 385 387 11
291 385 388 12
292 389 390 11
293 389 391 11
294 389 392 12
295 393 394 11
296 393 395 11
297 393 396 12
298 397 398 11
299 397 399 11
300 397 400 12
301 401 402 11
302 401 403 11
303 401 404 12
304 405 406 11
305 405 407 11
306 405 408 12
307 409 410 11
308 409 411 11
309 409 412 12
310 413 414 11
311 413 415 11
312 413 416 12
313 417 418 11
314 417 419 11
315 417 420 12
316 421 422 11
317 421 423 11
318 421 424 12
319 425 426 11
320 425 427 11
321 425 428 12
322 429 430 11
323 429 431 11
324 429 432 12
325 433 434 11
326 433 435 11
327 433 436 12
328 437 438 11
329 437 439 11
330 437 440 12
331 441 442 11
332 441 443 11
333 441 444 12
334 445 446 11
335 445 447 11
336 445 448 12
337 449 450 11
338 449 451 11
339 449 452 12
340 453 454 11
341 453 455 11
342 453 456 12
343 457 458 11
344 457 459 11
345 457 460 12
346 461 462 11
347 461 463 11
348 461 464 12
349 465 466 11
350 465 467 11
351 465 468 12
352 469 470 11
353 469 471 11
354 469 472 12
355 473 474 11
356 473 475 11
357 473 476 12
358 477 478 11
359 477 479 11
360 477 480 12
361 481 482 11
362 481 483 11
363 481 484 12
364 485 486 11
365 485 487 11
366 485 488 12
367 489 490 11
368 489 491 11
369 489 492 12
370 493 494 11
371 493 495 11
372 493 496 12
373 497 498 11
374 497 499 11
375 497 500 12
376 501 502 11
377 501 503 11
378 501 504 12
379 505 506 11
380 505 507 11
381 505 508 12
382 509 510 11
383 509 511 11
384 509 512 12
385 513 514 11
386 513 515 11
387 513 516 12
388 517 518 11
389 517 519 11
390 517 520 12
391 521 522 11
392 521 523 11
393 521 524 12
394 525 526 11
395 525 527 11
396 525 528 12
397 529 530 11
398 529 531 11
399 529 532 12
400 533 534 11
401 533 535 11
402 533 536 12
403 537 538 11
404 537 539 11
405 537 540 12
406 541 542 11
407 541 543 11
408 541 544 12
409 545 546 11
410 545 547 11
411 545 548 12
412 549 550 11
413 549 551 11
414 549 552 12
415 553 554 11
416 553 555 11
417 553 556 12
418 557 558 11
419 557 559 11
420 557 560 12
421 561 562 11
422 561 563 11
423 561 564 12
424 565 566 11
425 565 567 11
426 565 568 12
427 569 570 11
428 569 571 11
429 569 572 12
430 573 574 11
431 573 575 11
432 573 576 12
433 577 578 11
434 577 579 11
435 577 580 12
436 581 582 11
437 581 583 11
438 581 584 12
439 585 586 11
440 585 587 11
441 585 588 12
442 589 590 11
443 589 591 11
444 589 592 12
445 593 594 11
446 593 595 11
447 593 596 12
448 597 598 11
449 597 599 11
450 597 600 12
451 601 602 11
452 601 603 11
453 601 604 12
454 605 606 11
455 605 607 11
456 605 608 12
457 609 610 11
458 609 611 11
459 609 612 12
460 613 614 11
461 613 615 11
462 613 616 12
463 617 618 11
464 617 619 11
465 617 620 12
466 621 622 11
467 621 623 11
468 621 624 12
469 625 626 11
470 625 627 11
471 625 628 12
472 629 630 11
473 629 631 11
474 629 632 12
475 633 634 11
476 633 635 11
477 633 636 12
478 637 638 11
479 637 639 11
480 637 640 12
481 641 642 11
482 641 643 11
483 641 644 12
484 645 646 11
485 645 647 11
486 645 648 12
487 649 650 11
488 649 651 11
489 649 652 12
490 653 654 11
491 653 655 11
492 653 656 12
493 657 658 11
494 657 659 11
495 657 660 12
496 661 662 11
497 661 663 11
498 661 664 12
499 665 666 11
500 665 667 11
501 665 668 12
502 669 670 11
503 669 671 11
504 669 672 12
505 673 674 11
506 673 675 11
507 673 676 12
508 677 678 11
509 677 679 11
510 677 680 12
511 681 682 11
512 681 683 11
513 681 684 12
514 685 686 11
515 685 687 11
516 685 688 12
517 689 690 11
518 689 691 11
519 689 692 12
520 693 694 11
521 693 695 11
522 693 696 12
523 697 698 11
524 697 699 11
525 697 700 12
526 701 702 11
527 701 703 11
528 701 704 12
529 705 706 11
530 705 707 11
531 705 708 12
532 709 710 11
533 709 711 11
534 709 712 12
535 713 714 11
536 713 715 11
537 713 716 12
538 717 718 11
539 717 719 11
540 717 720 12
541 721 722 11
542 721 723 11
543 721 724 12
544 725 726 11
545 725 727 11
546 725 728 12
547 729 730 11
548 729 731 11
549 729 732 12
550 733 734 11
551 733 735 11
552 733 736 12
553 737 738 11
554 737 739 11
555 737 740 12
556 741 742 11
557 741 743 11
558 741 744 12
559 745 746 11
560 745 747 11
561 745 748 12
562 749 750 11
563 749 751 11
564 749 752 12
565 753 754 11
566 753 755 11
567 753 756 12
568 757 758 11
569 757 759 11
570 757 760 12
571 761 762 11
572 761 763 11
573 761 764 12
574 765 766 11
575 765 767 11
576 765 768 12
577 769 770 11
578 769 771 11
579 769 772 12
580 773 774 11
581 773 775 11
582 773 776 12
583 777 778 11
584 777 779 11
585 777 780 12
586 781 782 11
587 781 783 11
588 781 784 12
589 785 786 11
590 785 787 11
591 785 788 12
592 789 790 11
593 789 791 11
594 789 792 12
595 793 794 11
596 793 795 11
597 793 796 12
598 797 798 11
599 797 799 11
600 797 800 12
601 801 802 11
602 801 803 11
603 801 804 12
604 805 806 11
605 805 807 11
606 805 808 12
607 809 810 11
608 809 811 11
609 809 812 12
610 813 814 11
611 813 815 11
612 813 816 12
613 817 818 11
614 817 819 11
615 817 820 12
616 821 822 11
617 821 823 11
618 821 824 12
619 825 826 11
620 825 827 11
621 825 828 12
622 829 830 11
623 829 831 11
624 829 832 12
625 833 834 11
626 833 835 11
627 833 836 12
628 837 838 11
629 837 839 11
630 837 840 12
631 841 842 11
632 841 843 11
633 841 844 12
634 845 846 11
635 845 847 11
636 845 848 12
637 849 850 11
638 849 851 11
639 849 852 12
640 853 854 11
641 853 855 11
642 853 856 12
643 857 858 11
644 857 859 11
645 857 860 12
646 861 862 11
647 861 863 11
648 861 864 12
649 865 866 11
650 865 867 11
651 865 868 12
652 869 870 11
653 869 871 11
654 869 872 12
655 873 874 11
656 873 875 11
657 873 876 12
658 877 878 11
659 877 879 11
660 877 880 12
661 881 882 11
662 881 883 11
663 881 884 12
664 885 886 11
665 885 887 11
666 885 888 12
667 889 890 11
668 889 891 11
669 889 892 12
670 893 894 11
671 893 895 11
672 893 896 12
673 897 898 11
674 897 899 11
675 897 900 12
676 901 902 11
677 901 903 11
678 901 904 12
679 905 906 11
680 905 907 11
681 905 908 12
682 909 910 11
683 909 911 11
684 909 912 12
685 913 914 11
686 913 915 11
687 913 916 12
688 917 918 11
689 917 919 11
690 917 920 12
691 921 922 11
692 921 923 11
693 921 924 12
694 925 926 11
695 925 927 11
696 925 928 12
697 929 930 11
698 929 931 11
699 929 932 12
700 933 934 11
701 933 935 11
702 933 936 12
703 937 938 11
704 937 939 11
705 937 940 12
706 941 942 11
707 941 943 11
708 941 944 12
709 945 946 11
710 945 947 11
711 945 948 12
712 949 950 11
713 949 951 11
714 949 952 12
715 953 954 11
716 953 955 11
717 953 956 12
718 957 958 11
719 957 959 11
720 957 960 12
721 961 962 11
722 961 963 11
723 961 964 12
724 965 966 11
725 965 967 11
726 965 968 12
727 969 970 11
728 969 971 11
729 969 972 12
730 973 974 11
731 973 975 11
732 973 976 12
733 977 978 11
734 977 979 11
735 977 980 12
736 981 982 11
737 981 983 11
738 981 984 12
739 985 986 11
740 985 987 11
741 985 988 12
742 989 990 11
743 989 991 11
744 989 992 12
745 993 994 11
746 993 995 11
747 993 996 12
748 998 999 11
749 998 1000 11
750 998 997 12
751 1001 1002 11
752 1001 1003 11
753 1001 1004 12
754 1005 1006 11
755 1005 1007 11
756 1005 1008 12
757 1009 1010 11
758 1009 1011 11
759 1009 1012 12
760 1013 1014 11
761 1013 1015 11
762 1013 1016 12
763 1017 1018 11
764 1017 1019 11
765 1017 1020 12
766 1021 1022 11
767 1021 1023 11
768 1021 1024 12
769 1025 1026 11
770 1025 1027 11
771 1025 1028 12
772 1029 1030 11
773 1029 1031 11
774 1029 1032 12
775 1033 1034 11
776 1033 1035 11
777 1033 1036 12
778 1037 1038 11
779 1037 1039 11
780 1037 1040 12
781 1041 1042 11
782 1041 1043 11
783 1041 1044 12
784 1045 1046 11
785 1045 1047 11
786 1045 1048 12
787 1049 1050 11
788 1049 1051 11
789 1049 1052 12
790 1053 1054 11
791 1053 1055 11
792 1053 1056 12
793 1057 1058 11
794 1057 1059 11
795 1057 1060 12
796 1061 1062 11
797 1061 1063 11
798 1061 1064 12
799 1065 1066 11
800 1065 1067 11
801 1065 1068 12
802 1069 1070 11
803 1069 1071 11
804 1069 1072 12
805 1073 1074 11
806 1073 1075 11
807 1073 1076 12
808 1077 1078 11
809 1077 1079 11
810 1077 1080 12
811 1081 1082 11
812 1081 1083 11
813 1081 1084 12
814 1085 1086 11
815 1085 1087 11
816 1085 1088 12
817 1089 1090 11
818 1089 1091 11
819 1089 1092 12
820 1093 1094 11
821 1093 1095 11
822 1093 1096 12
823 1097 1098 11
824 1097 1099 11
825 1097 1100 12
826 1101 1102 11
827 1101 1103 11
828 1101 1104 12
829 1105 1106 11
830 1105 1107 11
831 1105 1108 12
832 1109 1110 11
833 1109 1111 11
834 1109 1112 12
835 1113 1114 11
836 1113 1115 11
837 1113 1116 12
838 1117 1118 11
839 1117 1119 11
840 1117 1120 12
841 1121 1122 11
842 1121 1123 11
843 1121 1124 12
844 1125 1126 11
845 1125 1127 11
846 1125 1128 12
847 1129 1130 11
848 1129 1131 11
849 1129 1132 12
850 1133 1134 11
851 1133 1135 11
852 1133 1136 12
853 1137 1138 11
854 1137 1139 11
855 1137 1140 12
856 1141 1142 11
857 1141 1143 11
858 1141 1144 12
859 1145 1146 11
860 1145 1147 11
861 1145 1148 12
862 1149 1150 11
863 1149 1151 11
864 1149 1152 12
865 1153 1154 11
866 1153 1155 11
867 1153 1156 12
868 1157 1158 11
869 1157 1159 11
870 1157 1160 12
871 1161 1162 11
872 1161 1163 11
873 1161 1164 12
874 1165 1166 11
875 1165 1167 11
876 1165 1168 12
877 1169 1170 11
878 1169 1171 11
879 1169 1172 12
880 1173 1174 11
881 1173 1175 11
882 1173 1176 12
883 1177 1178 11
884 1177 1179 11
885 1177 1180 12
886 1181 1182 11
887 1181 1183 11
888 1181 1184 12
889 1185 1186 11
890 1185 1187 11
891 1185 1188 12
892 1189 1190 11
893 1189 1191 11
894 1189 1192 12
895 1193 1194 11
896 1193 1195 11
897 1193 1196 12
898 1197 1198 11
899 1197 1199 11
900 1197 1200 12
901 1201 1202 11
902 1201 1203 11
903 1201 1204 12
904 1205 1206 11
905 1205 1207 11
906 1205 1208 12
907 1209 1210 11
908 1209 1211 11
909 1209 1212 12
910 1213 1214 11
911 1213 1215 11
912 1213 1216 12
913 1217 1218 11
914 1217 1219 11
915 1217 1220 12
916 1221 1222 11
917 1221 1223 11
918 1221 1224 12
919 1225 1226 11
920 1225 1227 11
921 1225 1228 12
922 1229 1230 11
923 1229 1231 11
924 1229 1232 12
925 1233 1234 11
926 1233 1235 11
927 1233 1236 12
928 1237 1238 11
929 1237 1239 11
930 1237 1240 12
931 1241 1242 11
932 1241 1243 11
933 1241 1244 12
934 1245 1246 11
935 1245 1247 11
936 1245 1248 12
937 1249 1250 11
938 1249 1251 11
939 1249 1252 12
940 1253 1254 11
941 1253 1255 11
942 1253 1256 12
943 1257 1258 11
944 1257 1259 11
945 1257 1260 12
946 1261 1262 11
947 1261 1263 11
948 1261 1264 12
949 1265 1266 11
950 1265 1267 11
951 1265 1268 12
952 1269 1270 11
953 1269 1271 11
954 1269 1272 12
955 1273 1274 11
956 1273 1275 11
957 1273 1276 12
958 1277 1278 11
959 1277 1279 11
960 1277 1280 12
961 1281 1282 11
962 1281 1283 11
963 1281 1284 12
964 1285 1286 11
965 1285 1287 11
966 1285 1288 12
967 1289 1290 11
968 1289 1291 11
969 1289 1292 12
970 1293 1294 11
971 1293 1295 11
972 1293 1296 12
973 1297 1298 11
974 1297 1299 11
975 1297 1300 12
976 1301 1302 11
977 1301 1303 11
978 1301 1304 12
979 1305 1306 11
980 1305 1307 11
981 1305 1308 12
982 1309 1310 11
983 1309 1311 11
984 1309 1312 12
985 1313 1314 11
986 1313 1315 11
987 1313 1316 12
988 1317 1318 11
989 1317 1319 11
990 1317 1320 12
991 1321 1322 11
992 1321 1323 11
993 1321 1324 12
994 1325 1326 11
995 1325 1327 11
996 1325 1328 12
997 1329 1330 11
998 1329 1331 11
999 1329 1332 12
1000 1333 1334 11
1001 1333 1335 11
1002 1333 1336 12
1003 1337 1338 11
1004 1337 1339 11
1005 1337 1340 12
1006 1341 1342 11
1007 1341 1343 11
1008 1341 1344 12
1009 1345 1346 11
1010 1345 1347 11
1011 1345 1348 12
1012 1349 1350 11
1013 1349 1351 11
1014 1349 1352 12
1015 1353 1354 11
1016 1353 1355 11
1017 1353 1356 12
1018 1357 1358 11
1019 1357 1359 11
1020 1357 1360 12
1021 1361 1362 11
1022 1361 1363 11
1023 1361 1364 12
1024 1365 1366 11
1025 1365 1367 11
1026 1365 1368 12
1027 1369 1370 11
1028 1369 1371 11
1029 1369 1372 12
1030 1373 1374 11
1031 1373 1375 11
1032 1373 1376 12
1033 1377 1378 11
1034 1377 1379 11
1035 1377 1380 12
1036 1381 1382 11
1037 1381 1383 11
1038 1381 1384 12
1039 1385 1386 11
1040 1385 1387 11
1041 1385 1388 12
1042 1389 1390 11
1043 1389 1391 11
1044 1389 1392 12
1045 1393 1394 11
1046 1393 1395 11
1047 1393 1396 12
1048 1397 1398 11
1049 1397 1399 11
1050 1397 1400 12
1051 1401 1402 11
1052 1401 1403 11
1053 1401 1404 12
1054 1405 1406 11
1055 1405 1407 11
1056 1405 1408 12
1057 1409 1410 11
1058 1409 1411 11
1059 1409 1412 12
1060 1413 1414 11
1061 1413 1415 11
1062 1413 1416 12
1063 1417 1418 11
1064 1417 1419 11
1065 1417 1420 12
1066 1421 1422 11
1067 1421 1423 11
1068 1421 1424 12
1069 1425 1426 11
1070 1425 1427 11
1071 1425 1428 12
1072 1429 1430 11
1073 1429 1431 11
1074 1429 1432 12
1075 1433 1434 11
1076 1433 1435 11
1077 1433 1436 12
1078 1437 1438 11
1079 1437 1439 11
1080 1437 1440 12
1081 1441 1442 11
1082 1441 1443 11
1083 1441 1444 12
1084 1445 1446 11
1085 1445 1447 11
1086 1445 1448 12
1087 1449 1450 11
1088 1449 1451 11
1089 1449 1452 12
1090 1453 1454 11
1091 1453 1455 11
1092 1453 1456 12
1093 1457 1458 11
1094 1457 1459 11
1095 1457 1460 12
1096 1461 1462 11
1097 1461 1463 11
1098 1461 1464 12
1099 1465 1466 11
1100 1465 1467 11
1101 1465 1468 12
1102 1469 1470 11
1103 1469 1471 11
1104 1469 1472 12
1105 1473 1474 11
1106 1473 1475 11
1107 1473 1476 12
1108 1477 1478 11
1109 1477 1479 11
1110 1477 1480 12
1111 1481 1482 11
1112 1481 1483 11
1113 1481 1484 12
1114 1485 1486 11
1115 1485 1487 11
1116 1485 1488 12
1117 1489 1490 11
1118 1489 1491 11
1119 1489 1492 12
1120 1493 1494 11
1121 1493 1495 11
1122 1493 1496 12
1123 1497 1498 11
1124 1497 1499 11
1125 1497 1500 12
1126 1501 1502 11
1127 1501 1503 11
1128 1501 1504 12
1129 1505 1506 11
1130 1505 1507 11
1131 1505 1508 12
1132 1509 1510 11
1133 1509 1511 11
1134 1509 1512 12
1135 1513 1514 11
1136 1513 1515 11
1137 1513 1516 12
1138 1517 1518 11
1139 1517 1519 11
1140 1517 1520 12
1141 1521 1522 11
1142 1521 1523 11
1143 1521 1524 12
1144 1525 1526 11
1145 1525 1527 11
1146 1525 1528 12
1147 1529 1530 11
1148 1529 1531 11
1149 1529 1532 12
1150 1533 1534 11
1151 1533 1535 11
1152 1533 1536 12
1153 1537 1538 11
1154 1537 1539 11
1155 1537 1540 12
1156 1541 1542 11
1157 1541 1543 11
1158 1541 1544 12
1159 1545 1546 11
1160 1545 1547 11
1161 1545 1548 12
1162 1549 1550 11
1163 1549 1551 11
1164 1549 1552 12
1165 1553 1554 11
1166 1553 1555 11
1167 1553 1556 12
1168 1557 1558 11
1169 1557 1559 11
1170 1557 1560 12
1171 1561 1562 11
1172 1561 1563 11
1173 1561 1564 12
1174 1565 1566 11
1175 1565 1567 11
1176 1565 1568 12
1177 1569 1570 11
1178 1569 1571 11
1179 1569 1572 12
1180 1573 1574 11
1181 1573 1575 11
1182 1573 1576 12
1183 1577 1578 11
1184 1577 1579 11
1185 1577 1580 12
1186 1581 1582 11
1187 1581 1583 11
1188 1581 1584 12
1189 1585 1586 11
1190 1585 1587 11
1191 1585 1588 12
1192 1589 1590 11
1193 1589 1591 11
1194 1589 1592 12
1195 1593 1594 11
1196 1593 1595 11
1197 1593 1596 12
1198 1597 1598 11
1199 1597 1599 11
1200 1597 1600 12
1201 1601 1602 11
1202 1601 1603 11
1203 1601 1604 12
1204 1605 1606 11
1205 1605 1607 11
1206 1605 1608 12
1207 1609 1610 11
1208 1609 1611 11
1209 1609 1612 12
1210 1613 1614 11
1211 1613 1615 11
1212 1613 1616 12
1213 1617 1618 11
1214 1617 1619 11
1215 1617 1620 12
1216 1621 1622 11
1217 1621 1623 11
1218 1621 1624 12
1219 1625 1626 11
1220 1625 1627 11
1221 1625 1628 12
1222 1629 1630 11
1223 1629 1631 11
1224 1629 1632 12
1225 1633 1634 11
1226 1633 1635 11
1227 1633 1636 12
1228 1637 1638 11
1229 1637 1639 11
1230 1637 1640 12
1231 1641 1642 11
1232 1641 1643 11
1233 1641 1644 12
1234 1645 1646 11
1235 1645 1647 11
1236 1645 1648 12
1237 1649 1650 11
1238 1649 1651 11
1239 1649 1652 12
1240 1653 1654 11
1241 1653 1655 11
1242 1653 1656 12
1243 1657 1658 11
1244 1657 1659 11
1245 1657 1660 12
1246 1661 1662 11
1247 1661 1663 11
1248 1661 1664 12
1249 1665 1666 11
1250 1665 1667 11
1251 1665 1668 12
1252 1669 1670 11
1253 1669 1671 11
1254 1669 1672 12
1255 1673 1674 11
1256 1673 1675 11
1257 1673 1676 12
1258 1677 1678 11
1259 1677 1679 11
1260 1677 1680 12
1261 1681 1682 11
1262 1681 1683 11
1263 1681 1684 12
1264 1685 1686 11
1265 1685 1687 11
1266 1685 1688 12
1267 1689 1690 11
1268 1689 1691 11
1269 1689 1692 12
1270 1693 1694 11
1271 1693 1695 11
1272 1693 1696 12
1273 1697 1698 11
1274 1697 1699 11
1275 1697 1700 12
1276 1701 1702 11
1277 1701 1703 11
1278 1701 1704 12
1279 1705 1706 11
1280 1705 1707 11
1281 1705 1708 12
1282 1709 1710 11
1283 1709 1711 11
1284 1709 1712 12
1285 1713 1714 11
1286 1713 1715 11
1287 1713 1716 12
1288 1717 1718 11
1289 1717 1719 11
1290 1717 1720 12
1291 1721 1722 11
1292 1721 1723 11
1293 1721 1724 12
1294 1725 1726 11
1295 1725 1727 11
1296 1725 1728 12
1297 1729 1730 11
1298 1729 1731 11
1299 1729 1732 12
1300 1733 1734 11
1301 1733 1735 11
1302 1733 1736 12
1303 1737 1738 11
1304 1737 1739 11
1305 1737 1740 12
1306 1741 1742 11
1307 1741 1743 11
1308 1741 1744 12
1309 1745 1746 11
1310 1745 1747 11
1311 1745 1748 12
1312 1749 1750 11
1313 1749 1751 11
1314 1749 1752 12
1315 1753 1754 11
1316 1753 1755 11
1317 1753 1756 12
1318 1757 1758 11
1319 1757 1759 11
1320 1757 1760 12
1321 1761 1762 11
1322 1761 1763 11
1323 1761 1764 12
1324 1765 1766 11
1325 1765 1767 11
1326 1765 1768 12
1327 1769 1770 11
1328 1769 1771 11
1329 1769 1772 12
1330 1773 1774 11
1331 1773 1775 11
1332 1773 1776 12
1333 1777 1778 11
1334 1777 1779 11
1335 1777 1780 12
1336 1781 1782 11
1337 1781 1783 11
1338 1781 1784 12
1339 1785 1786 11
1340 1785 1787 11
1341 1785 1788 12
1342 1789 1790 11
1343 1789 1791 11
1344 1789 1792 12
1345 1793 1794 11
1346 1793 1795 11
1347 1793 1796 12
1348 1797 1798 11
1349 1797 1799 11
1350 1797 1800 12
1351 1801 1802 11
1352 1801 1803 11
1353 1801 1804 12
1354 1805 1806 11
1355 1805 1807 11
1356 1805 1808 12
1357 1809 1810 11
1358 1809 1811 11
1359 1809 1812 12
1360 1813 1814 11
1361 1813 1815 11
1362 1813 1816 12
1363 1817 1818 11
1364 1817 1819 11
1365 1817 1820 12
1366 1821 1822 11
1367 1821 1823 11
1368 1821 1824 12
1369 1825 1826 11
1370 1825 1827 11
1371 1825 1828 12
1372 1829 1830 11
1373 1829 1831 11
1374 1829 1832 12
1375 1833 1834 11
1376 1833 1835 11
1377 1833 1836 12
1378 1837 1838 11
1379 1837 1839 11
1380 1837 1840 12
1381 1841 1842 11
1382 1841 1843 11
1383 1841 1844 12
1384 1845 1846 11
1385 1845 1847 11
1386 1845 1848 12
1387 1849 1850 11
1388 1849 1851 11
1389 1849 1852 12
1390 1853 1854 11
1391 1853 1855 11
1392 1853 1856 12
1393 1857 1858 11
1394 1857 1859 11
1395 1857 1860 12
1396 1861 1862 11
1397 1861 1863 11
1398 1861 1864 12
1399 1865 1866 11
1400 1865 1867 11
1401 1865 1868 12
1402 1869 1870 11
1403 1869 1871 11
1404 1869 1872 12
1405 1873 1874 11
1406 1873 1875 11
1407 1873 1876 12
1408 1877 1878 11
1409 1877 1879 11
1410 1877 1880 12
1411 1881 1882 11
1412 1881 1883 11
1413 1881 1884 12
1414 1885 1886 11
1415 1885 1887 11
1416 1885 1888 12
1417 1889 1890 11
1418 1889 1891 11
1419 1889 1892 12
1420 1893 1894 11
1421 1893 1895 11
1422 1893 1896 12
1423 1897 1898 11
1424 1897 1899 11
1425 1897 1900 12
1426 1901 1902 11
1427 1901 1903 11
1428 1901 1904 12
1429 1905 1906 11
1430 1905 1907 11
1431 1905 1908 12
1432 1909 1910 11
1433 1909 1911 11
1434 1909 1912 12
1435 1913 1914 11
1436 1913 1915 11
1437 1913 1916 12
1438 1917 1918 11
1439 1917 1919 11
1440 1917 1920 12
1441 1921 1922 11
1442 1921 1923 11
1443 1921 1924 12
1444 1925 1926 11
1445 1925 1927 11
1446 1925 1928 12
1447 1929 1930 11
1448 1929 1931 11
1449 1929 1932 12
1450 1933 1934 11
1451 1933 1935 11
1452 1933 1936 12
1453 1937 1938 11
1454 1937 1939 11
1455 1937 1940 12
1456 1941 1942 11
1457 1941 1943 11
1458 1941 1944 12
1459 1945 1946 11
1460 1945 1947 11
1461 1945 1948 12
1462 1949 1950 11
1463 1949 1951 11
1464 1949 1952 12
1465 1953 1954 11
1466 1953 1955 11
1467 1953 1956 12
1468 1957 1958 11
1469 1957 1959 11
1470 1957 1960 12
1471 1961 1962 11
1472 1961 1963 11
1473 1961 1964 12
1474 1965 1966 11
1475 1965 1967 11
1476 1965 1968 12
1477 1969 1970 11
1478 1969 1971 11
1479 1969 1972 12
1480 1973 1974 11
1481 1973 1975 11
1482 1973 1976 12
1483 1977 1978 11
1484 1977 1979 11
1485 1977 1980 12
1486 1981 1982 11
1487 1981 1983 11
1488 1981 1984 12
1489 1985 1986 11
1490 1985 1987 11
1491 1985 1988 12
1492 1989 1990 11
1493 1989 1991 11
1494 1989 1992 12
1495 1993 1994 11
1496 1993 1995 11
1497 1993 1996 12
1498 1997 1998 11
1499 1997 1999 11
1500 1997 2000 12
1501 2001 2002 11
1502 2001 2003 11
1503 2001 2004 12
1504 2005 2006 11
1505 2005 2007 11
1506 2005 2008 12
1507 2009 2010 11
1508 2009 2011 11
1509 2009 2012 12
1510 2013 2014 11
1511 2013 2015 11
1512 2013 2016 12
1513 2017 2018 11
1514 2017 2019 11
1515 2017 2020 12
1516 2021 2022 11
1517 2021 2023 11
1518 2021 2024 12
1519 2025 2026 11
1520 2025 2027 11
1521 2025 2028 12
1522 2029 2030 11
1523 2029 2031 11
1524 2029 2032 12
1525 2033 2034 11
1526 2033 2035 11
1527 2033 2036 12
1528 2037 2038 11
1529 2037 2039 11
1530 2037 2040 12
1531 2041 2042 11
1532 2041 2043 11
1533 2041 2044 12
1534 2045 2046 11
1535 2045 2047 11
1536 2045 2048 12
1537 2049 2050 11
1538 2049 2051 11
1539 2049 2052 12
1540 2053 2054 11
1541 2053 2055 11
1542 2053 2056 12
1543 2057 2058 11
1544 2057 2059 11
1545 2057 2060 12
1546 2061 2062 11
1547 2061 2063 11
1548 2061 2064 12
1549 2065 2066 11
1550 2065 2067 11
1551 2065 2068 12
1552 2069 2070 11
1553 2069 2071 11
1554 2069 2072 12
1555 2073 2074 11
1556 2073 2075 11
1557 2073 2076 12
1558 2077 2078 11
1559 2077 2079 11
1560 2077 2080 12
1561 2081 2082 11
1562 2081 2083 11
1563 2081 2084 12
1564 2085 2086 11
1565 2085 2087 11
1566 2085 2088 12
1567 2089 2090 11
1568 2089 2091 11
1569 2089 2092 12
1570 2093 2094 11
1571 2093 2095 11
1572 2093 2096 12
1573 2097 2098 11
1574 2097 2099 11
1575 2097 2100 12
1576 2101 2102 11
1577 2101 2103 11
1578 2101 2104 12
1579 2105 2106 11
1580 2105 2107 11
1581 2105 2108 12
1582 2109 2110 11
1583 2109 2111 11
1584 2109 2112 12
1585 2113 2114 11
1586 2113 2115 11
1587 2113 2116 12
1588 2117 2118 11
1589 2117 2119 11
1590 2117 2120 12
1591 2121 2122 11
1592 2121 2123 11
1593 2121 2124 12
1594 2125 2126 11
1595 2125 2127 11
1596 2125 2128 12
1597 2129 2130 11
1598 2129 2131 11
1599 2129 2132 12
1600 2133 2134 11
1601 2133 2135 11
1602 2133 2136 12
1603 2137 2138 11
1604 2137 2139 11
1605 2137 2140 12
1606 2141 2142 11
1607 2141 2143 11
1608 2141 2144 12
1609 2145 2146 11
1610 2145 2147 11
1611 2145 2148 12
1612 2149 2150 11
1613 2149 2151 11
1614 2149 2152 12
1615 2153 2154 11
1616 2153 2155 11
1617 2153 2156 12
1618 2157 2158 11
1619 2157 2159 11
1620 2157 2160 12
1621 2161 2162 11
1622 2161 2163 11
1623 2161 2164 12
1624 2165 2166 11
1625 2165 2167 11
1626 2165 2168 12
1627 2169 2170 11
1628 2169 2171 11
1629 2169 2172 12
1630 2173 2174 11
1631 2173 2175 11
1632 2173 2176 12
1633 2177 2178 11
1634 2177 2179 11
1635 2177 2180 12
1636 2181 2182 11
1637 2181 2183 11
1638 2181 2184 12
1639 2185 2186 11
1640 2185 2187 11
1641 2185 2188 12
1642 2189 2190 11
1643 2189 2191 11
1644 2189 2192 12
1645 2193 2194 11
1646 2193 2195 11
1647 2193 2196 12
1648 2197 2198 11
1649 2197 2199 11
1650 2197 2200 12
1651 2201 2202 11
1652 2201 2203 11
1653 2201 2204 12
1654 2205 2206 11
1655 2205 2207 11
1656 2205 2208 12
1657 2209 2210 11
1658 2209 2211 11
1659 2209 2212 12
1660 2213 2214 11
1661 2213 2215 11
1662 2213 2216 12
1663 2217 2218 11
1664 2217 2219 11
1665 2217 2220 12
1666 2221 2222 11
1667 2221 2223 11
1668 2221 2224 12
1669 2225 2226 11
1670 2225 2227 11
1671 2225 2228 12
1672 2229 2230 11
1673 2229 2231 11
1674 2229 2232 12
1675 2233 2234 11
1676 2233 2235 11
1677 2233 2236 12
1678 2237 2238 11
1679 2237 2239 11
1680 2237 2240 12
1681 2241 2242 11
1682 2241 2243 11
1683 2241 2244 12
1684 2245 2246 11
1685 2245 2247 11
1686 2245 2248 12
1687 2249 2250 11
1688 2249 2251 11
1689 2249 2252 12
1690 2253 2254 11
1691 2253 2255 11
1692 2253 2256 12
1693 2257 2258 11
1694 2257 2259 11
1695 2257 2260 12
1696 2261 2262 11
1697 2261 2263 11
1698 2261 2264 12
1699 2265 2266 11
1700 2265 2267 11
1701 2265 2268 12
1702 2269 2270 11
1703 2269 2271 11
1704 2269 2272 12
1705 2273 2274 11
1706 2273 2275 11
1707 2273 2276 12
1708 2277 2278 11
1709 2277 2279 11
1710 2277 2280 12
1711 2281 2282 11
1712 2281 2283 11
1713 2281 2284 12
1714 2285 2286 11
1715 2285 2287 11
1716 2285 2288 12
1717 2289 2290 11
1718 2289 2291 11
1719 2289 2292 12
1720 2293 2294 11
1721 2293 2295 11
1722 2293 2296 12
1723 2297 2298 11
1724 2297 2299 11
1725 2297 2300 12
1726 2301 2302 11
1727 2301 2303 11
1728 2301 2304 12
1729 2305 2306 11
1730 2305 2307 11
1731 2305 2308 12
1732 2309 2310 11
1733 2309 2311 11
1734 2309 2312 12
1735 2313 2314 11
1736 2313 2315 11
1737 2313 2316 12
1738 2317 2318 11
1739 2317 2319 11
1740 2317 2320 12
1741 2321 2322 11
1742 2321 2323 11
1743 2321 2324 12
1744 2325 2326 11
1745 2325 2327 11
1746 2325 2328 12
1747 2329 2330 11
1748 2329 2331 11
1749 2329 2332 12
1750 2333 2334 11
1751 2333 2335 11
1752 2333 2336 12
1753 2337 2338 11
1754 2337 2339 11
1755 2337 2340 12
1756 2341 2342 11
1757 2341 2343 11
1758 2341 2344 12
1759 2345 2346 11
1760 2345 2347 11
1761 2345 2348 12
1762 2349 2350 11
1763 2349 2351 11
1764 2349 2352 12
1765 2353 2354 11
1766 2353 2355 11
1767 2353 2356 12
1768 2357 2358 11
1769 2357 2359 11
1770 2357 2360 12
1771 2361 2362 11
1772 2361 2363 11
1773 2361 2364 12
1774 2365 2366 11
1775 2365 2367 11
1776 2365 2368 12
1777 2369 2370 11
1778 2369 2371 11
1779 2369 2372 12
1780 2373 2374 11
1781 2373 2375 11
1782 2373 2376 12
1783 2377 2378 11
1784 2377 2379 11
1785 2377 2380 12
1786 2381 2382 11
1787 2381 2383 11
1788 2381 2384 12
1789 2385 2386 11
1790 2385 2387 11
1791 2385 2388 12
1792 2389 2390 11
1793 2389 2391 11
1794 2389 2392 12
1795 2393 2394 11
1796 2393 2395 11
1797 2393 2396 12
1798 2397 2398 11
1799 2397 2399 11
1800 2397 2400 12
1801 2401 2402 11
1802 2401 2403 11
1803 2401 2404 12
1804 2405 2406 11
1805 2405 2407 11
1806 2405 2408 12
1807 2409 2410 11
1808 2409 2411 11
1809 2409 2412 12
1810 2413 2414 11
1811 2413 2415 11
1812 2413 2416 12
1813 2417 2418 11
1814 2417 2419 11
1815 2417 2420 12
1816 2421 2422 11
1817 2421 2423 11
1818 2421 2424 12
1819 2425 2426 11
1820 2425 2427 11
1821 2425 2428 12
1822 2429 2430 11
1823 2429 2431 11
1824 2429 2432 12
1825 2433 2434 11
1826 2433 2435 11
1827 2433 2436 12
1828 2437 2438 11
1829 2437 2439 11
1830 2437 2440 12
1831 2441 2442 11
1832 2441 2443 11
1833 2441 2444 12
1834 2445 2446 11
1835 2445 2447 11
1836 2445 2448 12
1837 2449 2450 11
1838 2449 2451 11
1839 2449 2452 12
1840 2453 2454 11
1841 2453 2455 11
1842 2453 2456 12
1843 2457 2458 11
1844 2457 2459 11
1845 2457 2460 12
1846 2461 2462 11
1847 2461 2463 11
1848 2461 2464 12
1849 2465 2466 11
1850 2465 2467 11
1851 2465 2468 12
1852 2469 2470 11
1853 2469 2471 11
1854 2469 2472 12
1855 2473 2474 11
1856 2473 2475 11
1857 2473 2476 12
1858 2477 2478 11
1859 2477 2479 11
1860 2477 2480 12
1861 2481 2482 11
1862 2481 2483 11
1863 2481 2484 12
1864 2485 2486 11
1865 2485 2487 11
1866 2485 2488 12
1867 2489 2490 11
1868 2489 2491 11
1869 2489 2492 12
1870 2493 2494 11
1871 2493 2495 11
1872 2493 2496 12
1873 2497 2498 11
1874 2497 2499 11
1875 2497 2500 12
1876 2501 2502 11
1877 2501 2503 11
1878 2501 2504 12
1879 2505 2506 11
1880 2505 2507 11
1881 2505 2508 12
1882 2509 2510 11
1883 2509 2511 11
1884 2509 2512 12
1885 2513 2514 11
1886 2513 2515 11
1887 2513 2516 12
1888 2517 2518 11
1889 2517 2519 11
1890 2517 2520 12
1891 2521 2522 11
1892 2521 2523 11
1893 2521 2524 12
1894 2525 2526 11
1895 2525 2527 11
1896 2525 2528 12
1897 2529 2530 11
1898 2529 2531 11
1899 2529 2532 12
1900 2533 2534 11
1901 2533 2535 11
1902 2533 2536 12
1903 2537 2538 11
1904 2537 2539 11
1905 2537 2540 12
1906 2541 2542 11
1907 2541 2543 11
1908 2541 2544 12
1909 2545 2546 11
1910 2545 2547 11
1911 2545 2548 12
1912 2549 2550 11
1913 2549 2551 11
1914 2549 2552 12
1915 2553 2554 11
1916 2553 2555 11
1917 2553 2556 12
1918 2557 2558 11
1919 2557 2559 11
1920 2557 2560 12
1921 2561 2562 11
1922 2561 2563 11
1923 2561 2564 12
1924 2565 2566 11
1925 2565 2567 11
1926 2565 2568 12
1927 2569 2570 11
1928 2569 2571 11
1929 2569 2572 12
1930 2573 2574 11
1931 2573 2575 11
1932 2573 2576 12
1933 2577 2578 11
1934 2577 2579 11
1935 2577 2580 12
1936 2581 2582 11
1937 2581 2583 11
1938 2581 2584 12
1939 2585 2586 11
1940 2585 2587 11
1941 2585 2588 12
1942 2589 2590 11
1943 2589 2591 11
1944 2589 2592 12
1945 2593 2594 11
1946 2593 2595 11
1947 2593 2596 12
1948 2597 2598 11
1949 2597 2599 11
1950 2597 2600 12
1951 2601 2602 11
1952 2601 2603 11
1953 2601 2604 12
1954 2605 2606 11
1955 2605 2607 11
1956 2605 2608 12
1957 2609 2610 11
1958 2609 2611 11
1959 2609 2612 12
1960 2613 2614 11
1961 2613 2615 11
1962 2613 2616 12
1963 2617 2618 11
1964 2617 2619 11
1965 2617 2620 12
1966 2621 2622 11
1967 2621 2623 11
1968 2621 2624 12
1969 2625 2626 11
1970 2625 2627 11
1971 2625 2628 12
1972 2629 2630 11
1973 2629 2631 11
1974 2629 2632 12
1975 2633 2634 11
1976 2633 2635 11
1977 2633 2636 12
1978 2637 2638 11
1979 2637 2639 11
1980 2637 2640 12
1981 2641 2642 11
1982 2641 2643 11
1983 2641 2644 12
1984 2645 2646 11
1985 2645 2647 11
1986 2645 2648 12
1987 2649 2650 11
1988 2649 2651 11
1989 2649 2652 12
1990 2653 2654 11
1991 2653 2655 11
1992 2653 2656 12
1993 2657 2658 11
1994 2657 2659 11
1995 2657 2660 12
1996 2661 2662 11
1997 2661 2663 11
1998 2661 2664 12
1999 2665 2666 11
2000 2665 2667 11
2001 2665 2668 12
2002 2669 2670 11
2003 2669 2671 11
2004 2669 2672 12
2005 2673 2674 11
2006 2673 2675 11
2007 2673 2676 12
2008 2677 2678 11
2009 2677 2679 11
2010 2677 2680 12
2011 2681 2682 11
2012 2681 2683 11
2013 2681 2684 12
2014 2685 2686 11
2015 2685 2687 11
2016 2685 2688 12
2017 2689 2690 11
2018 2689 2691 11
2019 2689 2692 12
2020 2693 2694 11
2021 2693 2695 11
2022 2693 2696 12
2023 2697 2698 11
2024 2697 2699 11
2025 2697 2700 12
2026 2701 2702 11
2027 2701 2703 11
2028 2701 2704 12
2029 2705 2706 11
2030 2705 2707 11
2031 2705 2708 12
2032 2709 2710 11
2033 2709 2711 11
2034 2709 2712 12
2035 2713 2714 11
2036 2713 2715 11
2037 2713 2716 12
2038 2717 2718 11
2039 2717 2719 11
2040 2717 2720 12
2041 2721 2722 11
2042 2721 2723 11
2043 2721 2724 12
2044 2725 2726 11
2045 2725 2727 11
2046 2725 2728 12
2047 2729 2730 11
2048 2729 2731 11
2049 2729 2732 12
2050 2733 2734 11
2051 2733 2735 11
2052 2733 2736 12
2053 2737 2738 11
2054 2737 2739 11
2055 2737 2740 12
2056 2741 2742 11
2057 2741 2743 11
2058 2741 2744 12
2059 2745 2746 11
2060 2745 2747 11
2061 2745 2748 12
2062 2749 2750 11
2063 2749 2751 11
2064 2749 2752 12
2065 2753 2754 11
2066 2753 2755 11
2067 2753 2756 12
2068 2757 2758 11
2069 2757 2759 11
2070 2757 2760 12
2071 2761 2762 11
2072 2761 2763 11
2073 2761 2764 12
2074 2765 2766 11
2075 2765 2767 11
2076 2765 2768 12
2077 2769 2770 11
2078 2769 2771 11
2079 2769 2772 12
2080 2773 2774 11
2081 2773 2775 11
2082 2773 2776 12
2083 2777 2778 11
2084 2777 2779 11
2085 2777 2780 12
2086 2781 2782 11
2087 2781 2783 11
2088 2781 2784 12
2089 2785 2786 11
2090 2785 2787 11
2091 2785 2788 12
2092 2789 2790 11
2093 2789 2791 11
2094 2789 2792 12
2095 2793 2794 11
2096 2793 2795 11
2097 2793 2796 12
2098 2797 2798 11
2099 2797 2799 11
2100 2797 2800 12
2101 2801 2802 11
2102 2801 2803 11
2103 2801 2804 12
2104 2805 2806 11
2105 2805 2807 11
2106 2805 2808 12
2107 2809 2810 11
2108 2809 2811 11
2109 2809 2812 12
2110 2813 2814 11
2111 2813 2815 11
2112 2813 2816 12
2113 2817 2818 11
2114 2817 2819 11
2115 2817 2820 12
2116 2821 2822 11
2117 2821 2823 11
2118 2821 2824 12
2119 2825 2826 11
2120 2825 2827 11
2121 2825 2828 12
2122 2829 2830 11
2123 2829 2831 11
2124 2829 2832 12
2125 2833 2834 11
2126 2833 2835 11
2127 2833 2836 12
2128 2837 2838 11
2129 2837 2839 11
2130 2837 2840 12
2131 2841 2842 11
2132 2841 2843 11
2133 2841 2844 12
2134 2845 2846 11
2135 2845 2847 11
2136 2845 2848 12
2137 2849 2850 11
2138 2849 2851 11
2139 2849 2852 12
2140 2853 2854 11
2141 2853 2855 11
2142 2853 2856 12
2143 2857 2858 11
2144 2857 2859 11
2145 2857 2860 12
2146 2861 2862 11
2147 2861 2863 11
2148 2861 2864 12
2149 2865 2866 11
2150 2865 2867 11
2151 2865 2868 12
2152 2869 2870 11
2153 2869 2871 11
2154 2869 2872 12
2155 2873 2874 11
2156 2873 2875 11
2157 2873 2876 12
2158 2877 2878 11
2159 2877 2879 11
2160 2877 2880 12
2161 2881 2882 11
2162 2881 2883 11
2163 2881 2884 12
2164 2885 2886 11
2165 2885 2887 11
2166 2885 2888 12
2167 2889 2890 11
2168 2889 2891 11
2169 2889 2892 12
2170 2893 2894 11
2171 2893 2895 11
2172 2893 2896 12
2173 2897 2898 11
2174 2897 2899 11
2175 2897 2900 12
2176 2901 2902 11
2177 2901 2903 11
2178 2901 2904 12
2179 2905 2906 11
2180 2905 2907 11
2181 2905 2908 12
2182 2909 2910 11
2183 2909 2911 11
2184 2909 2912 12
2185 2913 2914 11
2186 2913 2915 11
2187 2913 2916 12
2188 2917 2918 11
2189 2917 2919 11
2190 2917 2920 12
2191 2921 2922 11
2192 2921 2923 11
2193 2921 2924 12
2194 2925 2926 11
2195 2925 2927 11
2196 2925 2928 12
2197 2929 2930 11
2198 2929 2931 11
2199 2929 2932 12
2200 2933 2934 11
2201 2933 2935 11
2202 2933 2936 12
2203 2937 2938 11
2204 2937 2939 11
2205 2937 2940 12
2206 2941 2942 11
2207 2941 2943 11
2208 2941 2944 12
2209 2945 2946 11
2210 2945 2947 11
2211 2945 2948 12
2212 2949 2950 11
2213 2949 2951 11
2214 2949 2952 12
2215 2953 2954 11
2216 2953 2955 11
2217 2953 2956 12
2218 2957 2958 11
2219 2957 2959 11
2220 2957 2960 12
2221 2961 2962 11
2222 2961 2963 11
2223 2961 2964 12
2224 2965 2966 11
2225 2965 2967 11
2226 2965 2968 12
2227 2969 2970 11
2228 2969 2971 11
2229 2969 2972 12
2230 2973 2974 11
2231 2973 2975 11
2232 2973 2976 12
2233 2977 2978 11
2234 2977 2979 11
2235 2977 2980 12
2236 2981 2982 11
2237 2981 2983 11
2238 2981 2984 12
2239 2985 2986 11
2240 2985 2987 11
2241 2985 2988 12
2242 2989 2990 11
2243 2989 2991 11
2244 2989 2992 12
2245 2993 2994 11
2246 2993 2995 11
2247 2993 2996 12
2248 2997 2998 11
2249 2997 2999 11
2250 2997 3000 12
2251 3001 3002 11
2252 3001 3003 11
2253 3001 3004 12
2254 3005 3006 11
2255 3005 3007 11
2256 3005 3008 12
2257 3009 3010 11
2258 3009 3011 11
2259 3009 3012 12
2260 3013 3014 11
2261 3013 3015 11
2262 3013 3016 12
2263 3017 3018 11
2264 3017 3019 11
2265 3017 3020 12
2266 3021 3022 11
2267 3021 3023 11
2268 3021 3024 12
2269 3025 3026 11
2270 3025 3027 11
2271 3025 3028 12
2272 3029 3030 11
2273 3029 3031 11
2274 3029 3032 12
2275 3033 3034 11
2276 3033 3035 11
2277 3033 3036 12
2278 3037 3038 11
2279 3037 3039 11
2280 3037 3040 12
2281 3041 3042 11
2282 3041 3043 11
2283 3041 3044 12
2284 3045 3046 11
2285 3045 3047 11
2286 3045 3048 12
2287 3049 3050 11
2288 3049 3051 11
2289 3049 3052 12
2290 3053 3054 11
2291 3053 3055 11
2292 3053 3056 12
2293 3057 3058 11
2294 3057 3059 11
2295 3057 3060 12
2296 3061 3062 11
2297 3061 3063 11
2298 3061 3064 12
2299 3065 3066 11
2300 3065 3067 11
2301 3065 3068 12
2302 3069 3070 11
2303 3069 3071 11
2304 3069 3072 12
2305 3073 3074 11
2306 3073 3075 11
2307 3073 3076 12
2308 3077 3078 11
2309 3077 3079 11
2310 3077 3080 12
2311 3081 3082 11
2312 3081 3083 11
2313 3081 3084 12
2314 3085 3086 11
2315 3085 3087 11
2316 3085 3088 12
2317 3089 3090 11
2318 3089 3091 11
2319 3089 3092 12
2320 3093 3094 11
2321 3093 3095 11
2322 3093 3096 12
2323 3097 3098 11
2324 3097 3099 11
2325 3097 3100 12
2326 3101 3102 11
2327 3101 3103 11
2328 3101 3104 12
2329 3105 3106 11
2330 3105 3107 11
2331 3105 3108 12
2332 3109 3110 11
2333 3109 3111 11
2334 3109 3112 12
2335 3113 3114 11
2336 3113 3115 11
2337 3113 3116 12
2338 3117 3118 11
2339 3117 3119 11
2340 3117 3120 12
2341 3121 3122 11
2342 3121 3123 11
2343 3121 3124 12
2344 3125 3126 11
2345 3125 3127 11
2346 3125 3128 12
2347 3129 3130 11
2348 3129 3131 11
2349 3129 3132 12
2350 3133 3134 11
2351 3133 3135 11
2352 3133 3136 12
2353 3137 3138 11
2354 3137 3139 11
2355 3137 3140 12
2356 3141 3142 11
2357 3141 3143 11
2358 3141 3144 12
2359 3145 3146 11
2360 3145 3147 11
2361 3145 3148 12
2362 3149 3150 11
2363 3149 3151 11
2364 3149 3152 12
2365 3153 3154 11
2366 3153 3155 11
2367 3153 3156 12
2368 3157 3158 11
2369 3157 3159 11
2370 3157 3160 12
2371 3161 3162 11
2372 3161 3163 11
2373 3161 3164 12
2374 3165 3166 11
2375 3165 3167 11
2376 3165 3168 12
2377 3169 3170 11
2378 3169 3171 11
2379 3169 3172 12
2380 3173 3174 11
2381 3173 3175 11
2382 3173 3176 12
2383 3177 3178 11
2384 3177 3179 11
2385 3177 3180 12
2386 3181 3182 11
2387 3181 3183 11
2388 3181 3184 12
2389 3185 3186 11
2390 3185 3187 11
2391 3185 3188 12
2392 3189 3190 11
2393 3189 3191 11
2394 3189 3192 12
2395 3193 3194 11
2396 3193 3195 11
2397 3193 3196 12
2398 3197 3198 11
2399 3197 3199 11
2400 3197 3200 12
2401 3201 3202 11
2402 3201 3203 11
2403 3201 3204 12
2404 3205 3206 11
2405 3205 3207 11
2406 3205 3208 12
2407 3209 3210 11
2408 3209 3211 11
2409 3209 3212 12
2410 3213 3214 11
2411 3213 3215 11
2412 3213 3216 12
2413 3217 3218 11
2414 3217 3219 11
2415 3217 3220 12
2416 3221 3222 11
2417 3221 3223 11
2418 3221 3224 12
2419 3225 3226 11
2420 3225 3227 11
2421 3225 3228 12
2422 3229 3230 11
2423 3229 3231 11
2424 3229 3232 12
2425 3233 3234 11
2426 3233 3235 11
2427 3233 3236 12
2428 3237 3238 11
2429 3237 3239 11
2430 3237 3240 12
2431 3241 3242 11
2432 3241 3243 11
2433 3241 3244 12
2434 3245 3246 11
2435 3245 3247 11
2436 3245 3248 12
2437 3249 3250 11
2438 3249 3251 11
2439 3249 3252 12
2440 3253 3254 11
2441 3253 3255 11
2442 3253 3256 12
2443 3257 3258 11
2444 3257 3259 11
2445 3257 3260 12
2446 3261 3262 11
2447 3261 3263 11
2448 3261 3264 12
2449 3265 3266 11
2450 3265 3267 11
2451 3265 3268 12
2452 3269 3270 11
2453 3269 3271 11
2454 3269 3272 12
2455 3273 3274 11
2456 3273 3275 11
2457 3273 3276 12
2458 3277 3278 11
2459 3277 3279 11
2460 3277 3280 12
2461 3281 3282 11
2462 3281 3283 11
2463 3281 3284 12
2464 3285 3286 11
2465 3285 3287 11
2466 3285 3288 12
2467 3289 3290 11
2468 3289 3291 11
2469 3289 3292 12
2470 3293 3294 11
2471 3293 3295 11
2472 3293 3296 12
2473 3297 3298 11
2474 3297 3299 11
2475 3297 3300 12
2476 3301 3302 11
2477 3301 3303 11
2478 3301 3304 12
2479 3305 3306 11
2480 3305 3307 11
2481 3305 3308 12
2482 3309 3310 11
2483 3309 3311 11
2484 3309 3312 12
2485 3313 3314 11
2486 3313 3315 11
2487 3313 3316 12
2488 3317 3318 11
2489 3317 3319 11
2490 3317 3320 12
2491 3321 3322 11
2492 3321 3323 11
2493 3321 3324 12
2494 3325 3326 11
2495 3325 3327 11
2496 3325 3328 12
2497 3329 3330 11
2498 3329 3331 11
2499 3329 3332 12
2500 3333 3334 11
2501 3333 3335 11
2502 3333 3336 12
2503 3337 3338 11
2504 3337 3339 11
2505 3337 3340 12
2506 3341 3342 11
2507 3341 3343 11
2508 3341 3344 12
2509 3345 3346 11
2510 3345 3347 11
2511 3345 3348 12
2512 3349 3350 11
2513 3349 3351 11
2514 3349 3352 12
2515 3353 3354 11
2516 3353 3355 11
2517 3353 3356 12
2518 3357 3358 11
2519 3357 3359 11
2520 3357 3360 12
2521 3361 3362 11
2522 3361 3363 11
2523 3361 3364 12
2524 3365 3366 11
2525 3365 3367 11
2526 3365 3368 12
2527 3369 3370 11
2528 3369 3371 11
2529 3369 3372 12
2530 3373 3374 11
2531 3373 3375 11
2532 3373 3376 12
2533 3377 3378 11
2534 3377 3379 11
2535 3377 3380 12
2536 3381 3382 11
2537 3381 3383 11
2538 3381 3384 12
2539 3385 3386 11
2540 3385 3387 11
2541 3385 3388 12
2542 3389 3390 11
2543 3389 3391 11
2544 3389 3392 12
2545 3393 3394 11
2546 3393 3395 11
2547 3393 3396 12
2548 3397 3398 11
2549 3397 3399 11
2550 3397 3400 12
2551 3401 3402 11
2552 3401 3403 11
2553 3401 3404 12
2554 3405 3406 11
2555 3405 3407 11
2556 3405 3408 12
2557 3409 3410 11
2558 3409 3411 11
2559 3409 3412 12
2560 3413 3414 11
2561 3413 3415 11
2562 3413 3416 12
2563 3417 3418 11
2564 3417 3419 11
2565 3417 3420 12
2566 3421 3422 11
2567 3421 3423 11
2568 3421 3424 12
2569 3425 3426 11
2570 3425 3427 11
2571 3425 3428 12
2572 3429 3430 11
2573 3429 3431 11
2574 3429 3432 12
2575 3433 3434 11
2576 3433 3435 11
2577 3433 3436 12
2578 3437 3438 11
2579 3437 3439 11
2580 3437 3440 12
2581 3441 3442 11
2582 3441 3443 11
2583 3441 3444 12
2584 3445 3446 11
2585 3445 3447 11
2586 3445 3448 12
2587 3449 3450 11
2588 3449 3451 11
2589 3449 3452 12
2590 3453 3454 11
2591 3453 3455 11
2592 3453 3456 12
2593 3457 3458 11
2594 3457 3459 11
2595 3457 3460 12
2596 3461 3462 11
2597 3461 3463 11
2598 3461 3464 12
2599 3465 3466 11
2600 3465 3467 11
2601 3465 3468 12
2602 3469 3470 11
2603 3469 3471 11
2604 3469 3472 12
2605 3473 3474 11
2606 3473 3475 11
2607 3473 3476 12
2608 3477 3478 11
2609 3477 3479 11
2610 3477 3480 12
2611 3481 3482 11
2612 3481 3483 11
2613 3481 3484 12
2614 3485 3486 11
2615 3485 3487 11
2616 3485 3488 12
2617 3489 3490 11
2618 3489 3491 11
2619 3489 3492 12
2620 3493 3494 11
2621 3493 3495 11
2622 3493 3496 12
2623 3497 3498 11
2624 3497 3499 11
2625 3497 3500 12
2626 3501 3502 11
2627 3501 3503 11
2628 3501 3504 12
2629 3505 3506 11
2630 3505 3507 11
2631 3505 3508 12
2632 3509 3510 11
2633 3509 3511 11
2634 3509 3512 12
2635 3513 3514 11
2636 3513 3515 11
2637 3513 3516 12
2638 3517 3518 11
2639 3517 3519 11
2640 3517 3520 12
2641 3521 3522 11
2642 3521 3523 11
2643 3521 3524 12
2644 3525 3526 11
2645 3525 3527 11
2646 3525 3528 12
2647 3529 3530 11
2648 3529 3531 11
2649 3529 3532 12
2650 3533 3534 11
2651 3533 3535 11
2652 3533 3536 12
2653 3537 3538 11
2654 3537 3539 11
2655 3537 3540 12
2656 3541 3542 11
2657 3541 3543 11
2658 3541 3544 12
2659 3545 3546 11
2660 3545 3547 11
2661 3545 3548 12
2662 3549 3550 11
2663 3549 3551 11
2664 3549 3552 12
2665 3553 3554 11
2666 3553 3555 11
2667 3553 3556 12
2668 3557 3558 11
2669 3557 3559 11
2670 3557 3560 12
2671 3561 3562 11
2672 3561 3563 11
2673 3561 3564 12
2674 3565 3566 11
2675 3565 3567 11
2676 3565 3568 12
2677 3569 3570 11
2678 3569 3571 11
2679 3569 3572 12
2680 3573 3574 11
2681 3573 3575 11
2682 3573 3576 12
2683 3577 3578 11
2684 3577 3579 11
2685 3577 3580 12
2686 3581 3582 11
2687 3581 3583 11
2688 3581 3584 12
2689 3585 3586 11
2690 3585 3587 11
2691 3585 3588 12
2692 3589 3590 11
2693 3589 3591 11
2694 3589 3592 12
2695 3593 3594 11
2696 3593 3595 11
2697 3593 3596 12
2698 3597 3598 11
2699 3597 3599 11
2700 3597 3600 12
2701 3601 3602 11
2702 3601 3603 11
2703 3601 3604 12
2704 3605 3606 11
2705 3605 3607 11
2706 3605 3608 12
2707 3609 3610 11
2708 3609 3611 11
2709 3609 3612 12
2710 3613 3614 11
2711 3613 3615 11
2712 3613 3616 12
2713 3617 3618 11
2714 3617 3619 11
2715 3617 3620 12
2716 3621 3622 11
2717 3621 3623 11
2718 3621 3624 12
2719 3625 3626 11
2720 3625 3627 11
2721 3625 3628 12
2722 3629 3630 11
2723 3629 3631 11
2724 3629 3632 12
2725 3633 3634 11
2726 3633 3635 11
2727 3633 3636 12
2728 3637 3638 11
2729 3637 3639 11
2730 3637 3640 12
2731 3641 3642 11
2732 3641 3643 11
2733 3641 3644 12
2734 3645 3646 11
2735 3645 3647 11
2736 3645 3648 12
2737 3649 3650 11
2738 3649 3651 11
2739 3649 3652 12
2740 3653 3654 11
2741 3653 3655 11
2742 3653 3656 12
2743 3657 3658 11
2744 3657 3659 11
2745 3657 3660 12
2746 3661 3662 11
2747 3661 3663 11
2748 3661 3664 12
2749 3665 3666 11
2750 3665 3667 11
2751 3665 3668 12
2752 3669 3670 11
2753 3669 3671 11
2754 3669 3672 12
2755 3673 3674 11
2756 3673 3675 11
2757 3673 3676 12
2758 3677 3678 11
2759 3677 3679 11
2760 3677 3680 12
2761 3681 3682 11
2762 3681 3683 11
2763 3681 3684 12
2764 3685 3686 11
2765 3685 3687 11
2766 3685 3688 12
2767 3689 3690 11
2768 3689 3691 11
2769 3689 3692 12
2770 3693 3694 11
2771 3693 3695 11
2772 3693 3696 12
2773 3697 3698 11
2774 3697 3699 11
2775 3697 3700 12
2776 3701 3702 11
2777 3701 3703 11
2778 3701 3704 12
2779 3705 3706 11
2780 3705 3707 11
2781 3705 3708 12
2782 3709 3710 11
2783 3709 3711 11
2784 3709 3712 12
2785 3713 3714 11
2786 3713 3715 11
2787 3713 3716 12
2788 3717 3718 11
2789 3717 3719 11
2790 3717 3720 12
2791 3721 3722 11
2792 3721 3723 11
2793 3721 3724 12
2794 3725 3726 11
2795 3725 3727 11
2796 3725 3728 12
2797 3729 3730 11
2798 3729 3731 11
2799 3729 3732 12
2800 3733 3734 11
2801 3733 3735 11
2802 3733 3736 12
2803 3737 3738 11
2804 3737 3739 11
2805 3737 3740 12
2806 3741 3742 11
2807 3741 3743 11
2808 3741 3744 12
2809 3745 3746 11
2810 3745 3747 11
2811 3745 3748 12
2812 3749 3750 11
2813 3749 3751 11
2814 3749 3752 12
2815 3753 3754 11
2816 3753 3755 11
2817 3753 3756 12
2818 3757 3758 11
2819 3757 3759 11
2820 3757 3760 12
2821 3761 3762 11
2822 3761 3763 11
2823 3761 3764 12
2824 3765 3766 11
2825 3765 3767 11
2826 3765 3768 12
2827 3769 3770 11
2828 3769 3771 11
2829 3769 3772 12
2830 3773 3774 11
2831 3773 3775 11
2832 3773 3776 12
2833 3777 3778 11
2834 3777 3779 11
2835 3777 3780 12
2836 3781 3782 11
2837 3781 3783 11
2838 3781 3784 12
2839 3785 3786 11
2840 3785 3787 11
2841 3785 3788 12
2842 3789 3790 11
2843 3789 3791 11
2844 3789 3792 12
2845 3793 3794 11
2846 3793 3795 11
2847 3793 3796 12
2848 3797 3798 11
2849 3797 3799 11
2850 3797 3800 12
2851 3801 3802 11
2852 3801 3803 11
2853 3801 3804 12
2854 3805 3806 11
2855 3805 3807 11
2856 3805 3808 12
2857 3809 3810 11
2858 3809 3811 11
2859 3809 3812 12
2860 3813 3814 11
2861 3813 3815 11
2862 3813 3816 12
2863 3817 3818 11
2864 3817 3819 11
2865 3817 3820 12
2866 3821 3822 11
2867 3821 3823 11
2868 3821 3824 12
2869 3825 3826 11
2870 3825 3827 11
2871 3825 3828 12
2872 3829 3830 11
2873 3829 3831 11
2874 3829 3832 12
2875 3833 3834 11
2876 3833 3835 11
2877 3833 3836 12
2878 3837 3838 11
2879 3837 3839 11
2880 3837 3840 12
2881 3841 3842 11
2882 3841 3843 11
2883 3841 3844 12
2884 3845 3846 11
2885 3845 3847 11
2886 3845 3848 12
2887 3849 3850 11
2888 3849 3851 11
2889 3849 3852 12
2890 3853 3854 11
2891 3853 3855 11
2892 3853 3856 12
2893 3857 3858 11
2894 3857 3859 11
2895 3857 3860 12
2896 3861 3862 11
2897 3861 3863 11
2898 3861 3864 12
2899 3865 3866 11
2900 3865 3867 11
2901 3865 3868 12
2902 3869 3870 11
2903 3869 3871 11
2904 3869 3872 12
2905 3873 3874 11
2906 3873 3875 11
2907 3873 3876 12
2908 3877 3878 11
2909 3877 3879 11
2910 3877 3880 12
2911 3881 3882 11
2912 3881 3883 11
2913 3881 3884 12
2914 3885 3886 11
2915 3885 3887 11
2916 3885 3888 12
2917 3889 3890 11
2918 3889 3891 11
2919 3889 3892 12
2920 3893 3894 11
2921 3893 3895 11
2922 3893 3896 12
2923 3897 3898 11
2924 3897 3899 11
2925 3897 3900 12
2926 3901 3902 11
2927 3901 3903 11
2928 3901 3904 12
2929 3905 3906 11
2930 3905 3907 11
2931 3905 3908 12
2932 3909 3910 11
2933 3909 3911 11
2934 3909 3912 12
2935 3913 3914 11
2936 3913 3915 11
2937 3913 3916 12
2938 3917 3918 11
2939 3917 3919 11
2940 3917 3920 12
2941 3921 3922 11
2942 3921 3923 11
2943 3921 3924 12
2944 3925 3926 11
2945 3925 3927 11
2946 3925 3928 12
2947 3929 3930 11
2948 3929 3931 11
2949 3929 3932 12
2950 3933 3934 11
2951 3933 3935 11
2952 3933 3936 12
2953 3937 3938 11
2954 3937 3939 11
2955 3937 3940 12
2956 3941 3942 11
2957 3941 3943 11
2958 3941 3944 12
2959 3945 3946 11
2960 3945 3947 11
2961 3945 3948 12
2962 3949 3950 11
2963 3949 3951 11
2964 3949 3952 12
2965 3953 3954 11
2966 3953 3955 11
2967 3953 3956 12
2968 3957 3958 11
2969 3957 3959 11
2970 3957 3960 12
2971 3961 3962 11
2972 3961 3963 11
2973 3961 3964 12
2974 3965 3966 11
2975 3965 3967 11
2976 3965 3968 12
2977 3969 3970 11
2978 3969 3971 11
2979 3969 3972 12
2980 3973 3974 11
2981 3973 3975 11
2982 3973 3976 12
2983 3977 3978 11
2984 3977 3979 11
2985 3977 3980 12
2986 3981 3982 11
2987 3981 3983 11
2988 3981 3984 12
2989 3985 3986 11
2990 3985 3987 11
2991 3985 3988 12
2992 3989 3990 11
2993 3989 3991 11
2994 3989 3992 12
2995 3993 3994 11
2996 3993 3995 11
2997 3993 3996 12
2998 3997 3998 11
2999 3997 3999 11
3000 3997 4000 12
3001 4001 4002 11
3002 4001 4003 11
3003 4001 4004 12
3004 4005 4006 11
3005 4005 4007 11
3006 4005 4008 12
3007 4009 4010 11
3008 4009 4011 11
3009 4009 4012 12
3010 4013 4014 11
3011 4013 4015 11
3012 4013 4016 12
3013 4017 4018 11
3014 4017 4019 11
3015 4017 4020 12
3016 4021 4022 11
3017 4021 4023 11
3018 4021 4024 12
3019 4025 4026 11
3020 4025 4027 11
3021 4025 4028 12
3022 4029 4030 11
3023 4029 4031 11
3024 4029 4032 12
3025 4033 4034 11
3026 4033 4035 11
3027 4033 4036 12
3028 4037 4038 11
3029 4037 4039 11
3030 4037 4040 12
3031 4041 4042 11
3032 4041 4043 11
3033 4041 4044 12
3034 4045 4046 11
3035 4045 4047 11
3036 4045 4048 12
3037 4049 4050 11
3038 4049 4051 11
3039 4049 4052 12
3040 4053 4054 11
3041 4053 4055 11
3042 4053 4056 12
3043 4057 4058 11
3044 4057 4059 11
3045 4057 4060 12
3046 4061 4062 11
3047 4061 4063 11
3048 4061 4064 12
3049 4065 4066 11
3050 4065 4067 11
3051 4065 4068 12
3052 4069 4070 11
3053 4069 4071 11
3054 4069 4072 12
3055 4073 4074 11
3056 4073 4075 11
3057 4073 4076 12
3058 4077 4078 11
3059 4077 4079 11
3060 4077 4080 12
3061 4081 4082 11
3062 4081 4083 11
3063 4081 4084 12
3064 4085 4086 11
3065 4085 4087 11
3066 4085 4088 12
3067 4089 4090 11
3068 4089 4091 11
3069 4089 4092 12
3070 4093 4094 11
3071 4093 4095 11
3072 4093 4096 12
3073 4097 4098 11
3074 4097 4099 11
3075 4097 4100 12
3076 4101 4102 11
3077 4101 4103 11
3078 4101 4104 12
3079 4105 4106 11
3080 4105 4107 11
3081 4105 4108 12
3082 4109 4110 11
3083 4109 4111 11
3084 4109 4112 12
3085 4113 4114 11
3086 4113 4115 11
3087 4113 4116 12
3088 4117 4118 11
3089 4117 4119 11
3090 4117 4120 12
3091 4121 4122 11
3092 4121 4123 11
3093 4121 4124 12
3094 4125 4126 11
3095 4125 4127 11
3096 4125 4128 12
3097 4129 4130 11
3098 4129 4131 11
3099 4129 4132 12
3100 4133 4134 11
3101 4133 4135 11
3102 4133 4136 12
3103 4137 4138 11
3104 4137 4139 11
3105 4137 4140 12
3106 4141 4142 11
3107 4141 4143 11
3108 4141 4144 12
3109 4145 4146 11
3110 4145 4147 11
3111 4145 4148 12
3112 4149 4150 11
3113 4149 4151 11
3114 4149 4152 12
3115 4153 4154 11
3116 4153 4155 11
3117 4153 4156 12
3118 4157 4158 11
3119 4157 4159 11
3120 4157 4160 12
3121 4161 4162 11
3122 4161 4163 11
3123 4161 4164 12
3124 4165 4166 11
3125 4165 4167 11
3126 4165 4168 12
3127 4169 4170 11
3128 4169 4171 11
3129 4169 4172 12
3130 4173 4174 11
3131 4173 4175 11
3132 4173 4176 12
3133 4177 4178 11
3134 4177 4179 11
3135 4177 4180 12
3136 4181 4182 11
3137 4181 4183 11
3138 4181 4184 12
3139 4185 4186 11
3140 4185 4187 11
3141 4185 4188 12
3142 4189 4190 11
3143 4189 4191 11
3144 4189 4192 12
3145 4193 4194 11
3146 4193 4195 11
3147 4193 4196 12
3148 4197 4198 11
3149 4197 4199 11
3150 4197 4200 12
3151 4201 4202 11
3152 4201 4203 11
3153 4201 4204 12
3154 4205 4206 11
3155 4205 4207 11
3156 4205 4208 12
3157 4209 4210 11
3158 4209 4211 11
3159 4209 4212 12
3160 4213 4214 11
3161 4213 4215 11
3162 4213 4216 12
3163 4217 4218 11
3164 4217 4219 11
3165 4217 4220 12
3166 4221 4222 11
3167 4221 4223 11
3168 4221 4224 12
3169 4225 4226 11
3170 4225 4227 11
3171 4225 4228 12
3172 4229 4230 11
3173 4229 4231 11
3174 4229 4232 12
3175 4233 4234 11
3176 4233 4235 11
3177 4233 4236 12
3178 4237 4238 11
3179 4237 4239 11
3180 4237 4240 12
3181 4241 4242 11
3182 4241 4243 11
3183 4241 4244 12
3184 4245 4246 11
3185 4245 4247 11
3186 4245 4248 12
3187 4249 4250 11
3188 4249 4251 11
3189 4249 4252 12
3190 4253 4254 11
3191 4253 4255 11
3192 4253 4256 12
3193 4257 4258 11
3194 4257 4259 11
3195 4257 4260 12
3196 4261 4262 11
3197 4261 4263 11
3198 4261 4264 12
3199 4265 4266 11
3200 4265 4267 11
3201 4265 4268 12
3202 4269 4270 11
3203 4269 4271 11
3204 4269 4272 12
3205 4273 4274 11
3206 4273 4275 11
3207 4273 4276 12
3208 4277 4278 11
3209 4277 4279 11
3210 4277 4280 12
3211 4281 4282 11
3212 4281 4283 11
3213 4281 4284 12
3214 4285 4286 11
3215 4285 4287 11
3216 4285 4288 12
3217 4289 4290 11
3218 4289 4291 11
3219 4289 4292 12
3220 4293 4294 11
3221 4293 4295 11
3222 4293 4296 12
3223 4297 4298 11
3224 4297 4299 11
3225 4297 4300 12
3226 4301 4302 11
3227 4301 4303 11
3228 4301 4304 12
3229 4305 4306 11
3230 4305 4307 11
3231 4305 4308 12
3232 4309 4310 11
3233 4309 4311 11
3234 4309 4312 12
3235 4313 4314 11
3236 4313 4315 11
3237 4313 4316 12
3238 4317 4318 11
3239 4317 4319 11
3240 4317 4320 12
3241 4321 4322 11
3242 4321 4323 11
3243 4321 4324 12
3244 4325 4326 11
3245 4325 4327 11
3246 4325 4328 12
3247 4329 4330 11
3248 4329 4331 11
3249 4329 4332 12
3250 4333 4334 11
3251 4333 4335 11
3252 4333 4336 12
3253 4337 4338 11
3254 4337 4339 11
3255 4337 4340 12
3256 4341 4342 11
3257 4341 4343 11
3258 4341 4344 12
3259 4345 4346 11
3260 4345 4347 11
3261 4345 4348 12
3262 4349 4350 11
3263 4349 4351 11
3264 4349 4352 12
3265 4353 4354 11
3266 4353 4355 11
3267 4353 4356 12
3268 4357 4358 11
3269 4357 4359 11
3270 4357 4360 12
3271 4361 4362 11
3272 4361 4363 11
3273 4361 4364 12
3274 4365 4366 11
3275 4365 4367 11
3276 4365 4368 12
3277 4369 4370 11
3278 4369 4371 11
3279 4369 4372 12
3280 4373 4374 11
3281 4373 4375 11
3282 4373 4376 12
3283 4377 4378 11
3284 4377 4379 11
3285 4377 4380 12
3286 4381 4382 11
3287 4381 4383 11
3288 4381 4384 12
3289 4385 4386 11
3290 4385 4387 11
3291 4385 4388 12
3292 4389 4390 11
3293 4389 4391 11
3294 4389 4392 12
3295 4393 4394 11
3296 4393 4395 11
3297 4393 4396 12
3298 4397 4398 11
3299 4397 4399 11
3300 4397 4400 12
3301 4401 4402 11
3302 4401 4403 11
3303 4401 4404 12
3304 4405 4406 11
3305 4405 4407 11
3306 4405 4408 12
3307 4409 4410 11
3308 4409 4411 11
3309 4409 4412 12
3310 4413 4414 11
3311 4413 4415 11
3312 4413 4416 12
3313 4417 4418 11
3314 4417 4419 11
3315 4417 4420 12
3316 4421 4422 11
3317 4421 4423 11
3318 4421 4424 12
3319 4425 4426 11
3320 4425 4427 11
3321 4425 4428 12
3322 4429 4430 11
3323 4429 4431 11
3324 4429 4432 12
3325 4433 4434 11
3326 4433 4435 11
3327 4433 4436 12
3328 4437 4438 11
3329 4437 4439 11
3330 4437 4440 12
3331 4441 4442 11
3332 4441 4443 11
3333 4441 4444 12
3334 4445 4446 11
3335 4445 4447 11
3336 4445 4448 12
3337 4449 4450 11
3338 4449 4451 11
3339 4449 4452 12
3340 4453 4454 11
3341 4453 4455 11
3342 4453 4456 12
3343 4457 4458 11
3344 4457 4459 11
3345 4457 4460 12
3346 4461 4462 11
3347 4461 4463 11
3348 4461 4464 12
3349 4465 4466 11
3350 4465 4467 11
3351 4465 4468 12
3352 4469 4470 11
3353 4469 4471 11
3354 4469 4472 12
3355 4473 4474 11
3356 4473 4475 11
3357 4473 4476 12
3358 4477 4478 11
3359 4477 4479 11
3360 4477 4480 12
3361 4481 4482 11
3362 4481 4483 11
3363 4481 4484 12
3364 4485 4486 11
3365 4485 4487 11
3366 4485 4488 12
3367 4489 4490 11
3368 4489 4491 11
3369 4489 4492 12
3370 4493 4494 11
3371 4493 4495 11
3372 4493 4496 12
3373 4497 4498 11
3374 4497 4499 11
3375 4497 4500 12
3376 4501 4502 11
3377 4501 4503 11
3378 4501 4504 12
3379 4505 4506 11
3380 4505 4507 11
3381 4505 4508 12
3382 4509 4510 11
3383 4509 4511 11
3384 4509 4512 12
3385 4513 4514 11
3386 4513 4515 11
3387 4513 4516 12
3388 4517 4518 11
3389 4517 4519 11
3390 4517 4520 12
3391 4521 4522 11
3392 4521 4523 11
3393 4521 4524 12
3394 4525 4526 11
3395 4525 4527 11
3396 4525 4528 12
3397 4529 4530 11
3398 4529 4531 11
3399 4529 4532 12
3400 4533 4534 11
3401 4533 4535 11
3402 4533 4536 12
3403 4537 4538 11
3404 4537 4539 11
3405 4537 4540 12
3406 4541 4542 11
3407 4541 4543 11
3408 4541 4544 12
3409 4545 4546 11
3410 4545 4547 11
3411 4545 4548 12
3412 4549 4550 11
3413 4549 4551 11
3414 4549 4552 12
3415 4553 4554 11
3416 4553 4555 11
3417 4553 4556 12
3418 4557 4558 11
3419 4557 4559 11
3420 4557 4560 12
3421 4561 4562 11
3422 4561 4563 11
3423 4561 4564 12
3424 4565 4566 11
3425 4565 4567 11
3426 4565 4568 12
3427 4569 4570 11
3428 4569 4571 11
3429 4569 4572 12
3430 4573 4574 11
3431 4573 4575 11
3432 4573 4576 12
3433 4577 4578 11
3434 4577 4579 11
3435 4577 4580 12
3436 4581 4582 11
3437 4581 4583 11
3438 4581 4584 12
3439 4585 4586 11
3440 4585 4587 11
3441 4585 4588 12
3442 4589 4590 11
3443 4589 4591 11
3444 4589 4592 12
3445 4593 4594 11
3446 4593 4595 11
3447 4593 4596 12
3448 4597 4598 11
3449 4597 4599 11
3450 4597 4600 12
3451 4601 4602 11
3452 4601 4603 11
3453 4601 4604 12
3454 4605 4606 11
3455 4605 4607 11
3456 4605 4608 12
3457 4609 4610 11
3458 4609 4611 11
3459 4609 4612 12
3460 4613 4614 11
3461 4613 4615 11
3462 4613 4616 12
3463 4617 4618 11
3464 4617 4619 11
3465 4617 4620 12
3466 4621 4622 11
3467 4621 4623 11
3468 4621 4624 12
3469 4625 4626 11
3470 4625 4627 11
3471 4625 4628 12
3472 4629 4630 11
3473 4629 4631 11
3474 4629 4632 12
3475 4633 4634 11
3476 4633 4635 11
3477 4633 4636 12
3478 4637 4638 11
3479 4637 4639 11
3480 4637 4640 12
3481 4641 4642 11
3482 4641 4643 11
3483 4641 4644 12
3484 4645 4646 11
3485 4645 4647 11
3486 4645 4648 12
3487 4649 4650 11
3488 4649 4651 11
3489 4649 4652 12
3490 4653 4654 11
3491 4653 4655 11
3492 4653 4656 12
3493 4657 4658 11
3494 4657 4659 11
3495 4657 4660 12
3496 4661 4662 11
3497 4661 4663 11
3498 4661 4664 12
3499 4665 4666 11
3500 4665 4667 11
3501 4665 4668 12
3502 4669 4670 11
3503 4669 4671 11
3504 4669 4672 12
3505 4673 4674 11
3506 4673 4675 11
3507 4673 4676 12
3508 4677 4678 11
3509 4677 4679 11
3510 4677 4680 12
3511 4681 4682 11
3512 4681 4683 11
3513 4681 4684 12
3514 4685 4686 11
3515 4685 4687 11
3516 4685 4688 12
3517 4689 4690 11
3518 4689 4691 11
3519 4689 4692 12
3520 4693 4694 11
3521 4693 4695 11
3522 4693 4696 12
3523 4697 4698 11
3524 4697 4699 11
3525 4697 4700 12
3526 4701 4702 11
3527 4701 4703 11
3528 4701 4704 12
3529 4705 4706 11
3530 4705 4707 11
3531 4705 4708 12
3532 4709 4710 11
3533 4709 4711 11
3534 4709 4712 12
3535 4713 4714 11
3536 4713 4715 11
3537 4713 4716 12
3538 4717 4718 11
3539 4717 4719 11
3540 4717 4720 12
3541 4721 4722 11
3542 4721 4723 11
3543 4721 4724 12
3544 4725 4726 11
3545 4725 4727 11
3546 4725 4728 12
3547 4729 4730 11
3548 4729 4731 11
3549 4729 4732 12
3550 4733 4734 11
3551 4733 4735 11
3552 4733 4736 12
3553 4737 4738 11
3554 4737 4739 11
3555 4737 4740 12
3556 4741 4742 11
3557 4741 4743 11
3558 4741 4744 12
3559 4745 4746 11
3560 4745 4747 11
3561 4745 4748 12
3562 4749 4750 11
3563 4749 4751 11
3564 4749 4752 12
3565 4753 4754 11
3566 4753 4755 11
3567 4753 4756 12
3568 4757 4758 11
3569 4757 4759 11
3570 4757 4760 12
3571 4761 4762 11
3572 4761 4763 11
3573 4761 4764 12
3574 4765 4766 11
3575 4765 4767 11
3576 4765 4768 12
3577 4769 4770 11
3578 4769 4771 11
3579 4769 4772 12
3580 4773 4774 11
3581 4773 4775 11
3582 4773 4776 12
3583 4777 4778 11
3584 4777 4779 11
3585 4777 4780 12
3586 4781 4782 11
3587 4781 4783 11
3588 4781 4784 12
3589 4785 4786 11
3590 4785 4787 11
3591 4785 4788 12
3592 4789 4790 11
3593 4789 4791 11
3594 4789 4792 12
3595 4793 4794 11
3596 4793 4795 11
3597 4793 4796 12
3598 4797 4798 11
3599 4797 4799 11
3600 4797 4800 12
3601 4801 4802 11
3602 4801 4803 11
3603 4801 4804 12
3604 4805 4806 11
3605 4805 4807 11
3606 4805 4808 12
3607 4809 4810 11
3608 4809 4811 11
3609 4809 4812 12
3610 4813 4814 11
3611 4813 4815 11
3612 4813 4816 12
3613 4817 4818 11
3614 4817 4819 11
3615 4817 4820 12
3616 4821 4822 11
3617 4821 4823 11
3618 4821 4824 12
3619 4825 4826 11
3620 4825 4827 11
3621 4825 4828 12
3622 4829 4830 11
3623 4829 4831 11
3624 4829 4832 12
3625 4833 4834 11
3626 4833 4835 11
3627 4833 4836 12
3628 4837 4838 11
3629 4837 4839 11
3630 4837 4840 12
3631 4841 4842 11
3632 4841 4843 11
3633 4841 4844 12
3634 4845 4846 11
3635 4845 4847 11
3636 4845 4848 12
3637 4849 4850 11
3638 4849 4851 11
3639 4849 4852 12
3640 4853 4854 11
3641 4853 4855 11
3642 4853 4856 12
3643 4857 4858 11
3644 4857 4859 11
3645 4857 4860 12
3646 4861 4862 11
3647 4861 4863 11
3648 4861 4864 12
3649 4865 4866 11
3650 4865 4867 11
3651 4865 4868 12
3652 4869 4870 11
3653 4869 4871 11
3654 4869 4872 12
3655 4873 4874 11
3656 4873 4875 11
3657 4873 4876 12
3658 4877 4878 11
3659 4877 4879 11
3660 4877 4880 12
3661 4881 4882 11
3662 4881 4883 11
3663 4881 4884 12
3664 4885 4886 11
3665 4885 4887 11
3666 4885 4888 12
3667 4889 4890 11
3668 4889 4891 11
3669 4889 4892 12
3670 4893 4894 11
3671 4893 4895 11
3672 4893 4896 12
3673 4897 4898 11
3674 4897 4899 11
3675 4897 4900 12
3676 4901 4902 11
3677 4901 4903 11
3678 4901 4904 12
3679 4905 4906 11
3680 4905 4907 11
3681 4905 4908 12
3682 4909 4910 11
3683 4909 4911 11
3684 4909 4912 12
3685 4913 4914 11
3686 4913 4915 11
3687 4913 4916 12
3688 4917 4918 11
3689 4917 4919 11
3690 4917 4920 12
3691 4921 4922 11
3692 4921 4923 11
3693 4921 4924 12
3694 4925 4926 11
3695 4925 4927 11
3696 4925 4928 12
3697 4929 4930 11
3698 4929 4931 11
3699 4929 4932 12
3700 4933 4934 11
3701 4933 4935 11
3702 4933 4936 12
3703 4937 4938 11
3704 4937 4939 11
3705 4937 4940 12
3706 4941 4942 11
3707 4941 4943 11
3708 4941 4944 12
3709 4945 4946 11
3710 4945 4947 11
3711 4945 4948 12
3712 4949 4950 11
3713 4949 4951 11
3714 4949 4952 12
3715 4953 4954 11
3716 4953 4955 11
3717 4953 4956 12
3718 4957 4958 11
3719 4957 4959 11
3720 4957 4960 12
3721 4961 4962 11
3722 4961 4963 11
3723 4961 4964 12
3724 4965 4966 11
3725 4965 4967 11
3726 4965 4968 12
3727 4969 4970 11
3728 4969 4971 11
3729 4969 4972 12
3730 4973 4974 11
3731 4973 4975 11
3732 4973 4976 12
3733 4977 4978 11
3734 4977 4979 11
3735 4977 4980 12
3736 4981 4982 11
3737 4981 4983 11
3738 4981 4984 12
3739 4985 4986 11
3740 4985 4987 11
3741 4985 4988 12
3742 4989 4990 11
3743 4989 4991 11
3744 4989 4992 12
3745 4993 4994 11
3746 4993 4995 11
3747 4993 4996 12
3748 4997 4998 11
3749 4997 4999 11
3750 4997 5000 12
3751 5001 5002 11
3752 5001 5003 11
3753 5001 5004 12
3754 5005 5006 11
3755 5005 5007 11
3756 5005 5008 12
3757 5009 5010 11
3758 5009 5011 11
3759 5009 5012 12
3760 5013 5014 11
3761 5013 5015 11
3762 5013 5016 12
3763 5017 5018 11
3764 5017 5019 11
3765 5017 5020 12
3766 5021 5022 11
3767 5021 5023 11
3768 5021 5024 12
3769 5025 5026 11
3770 5025 5027 11
3771 5025 5028 12
3772 5029 5030 11
3773 5029 5031 11
3774 5029 5032 12
3775 5033 5034 11
3776 5033 5035 11
3777 5033 5036 12
3778 5037 5038 11
3779 5037 5039 11
3780 5037 5040 12
3781 5041 5042 11
3782 5041 5043 11
3783 5041 5044 12
3784 5045 5046 11
3785 5045 5047 11
3786 5045 5048 12
3787 5049 5050 11
3788 5049 5051 11
3789 5049 5052 12
3790 5053 5054 11
3791 5053 5055 11
3792 5053 5056 12
3793 5057 5058 11
3794 5057 5059 11
3795 5057 5060 12
3796 5061 5062 11
3797 5061 5063 11
3798 5061 5064 12
3799 5065 5066 11
3800 5065 5067 11
3801 5065 5068 12
3802 5069 5070 11
3803 5069 5071 11
3804 5069 5072 12
3805 5073 5074 11
3806 5073 5075 11
3807 5073 5076 12
3808 5077 5078 11
3809 5077 5079 11
3810 5077 5080 12
3811 5081 5082 11
3812 5081 5083 11
3813 5081 5084 12
3814 5085 5086 11
3815 5085 5087 11
3816 5085 5088 12
3817 5089 5090 11
3818 5089 5091 11
3819 5089 5092 12
3820 5093 5094 11
3821 5093 5095 11
3822 5093 5096 12
3823 5097 5098 11
3824 5097 5099 11
3825 5097 5100 12
3826 5101 5102 11
3827 5101 5103 11
3828 5101 5104 12
3829 5105 5106 11
3830 5105 5107 11
3831 5105 5108 12
3832 5109 5110 11
3833 5109 5111 11
3834 5109 5112 12
3835 5113 5114 11
3836 5113 5115 11
3837 5113 5116 12
3838 5117 5118 11
3839 5117 5119 11
3840 5117 5120 12
3841 5121 5122 11
3842 5121 5123 11
3843 5121 5124 12
3844 5125 5126 11
3845 5125 5127 11
3846 5125 5128 12
3847 5129 5130 11
3848 5129 5131 11
3849 5129 5132 12
3850 5133 5134 11
3851 5133 5135 11
3852 5133 5136 12
3853 5137 5138 11
3854 5137 5139 11
3855 5137 5140 12
3856 5141 5142 11
3857 5141 5143 11
3858 5141 5144 12
3859 5145 5146 11
3860 5145 5147 11
3861 5145 5148 12
3862 5149 5150 11
3863 5149 5151 11
3864 5149 5152 12
3865 5153 5154 11
3866 5153 5155 11
3867 5153 5156 12
3868 5157 5158 11
3869 5157 5159 11
3870 5157 5160 12
3871 5161 5162 11
3872 5161 5163 11
3873 5161 5164 12
3874 5165 5166 11
3875 5165 5167 11
3876 5165 5168 12
3877 5169 5170 11
3878 5169 5171 11
3879 5169 5172 12
3880 5173 5174 11
3881 5173 5175 11
3882 5173 5176 12
3883 5177 5178 11
3884 5177 5179 11
3885 5177 5180 12
3886 5181 5182 11
3887 5181 5183 11
3888 5181 5184 12
3889 5185 5186 11
3890 5185 5187 11
3891 5185 5188 12
3892 5189 5190 11
3893 5189 5191 11
3894 5189 5192 12
3895 5193 5194 11
3896 5193 5195 11
3897 5193 5196 12
3898 5197 5198 11
3899 5197 5199 11
3900 5197 5200 12
3901 5201 5202 11
3902 5201 5203 11
3903 5201 5204 12
3904 5205 5206 11
3905 5205 5207 11
3906 5205 5208 12
3907 5209 5210 11
3908 5209 5211 11
3909 5209 5212 12
3910 5213 5214 11
3911 5213 5215 11
3912 5213 5216 12
3913 5217 5218 11
3914 5217 5219 11
3915 5217 5220 12
3916 5221 5222 11
3917 5221 5223 11
3918 5221 5224 12
3919 5225 5226 11
3920 5225 5227 11
3921 5225 5228 12
3922 5229 5230 11
3923 5229 5231 11
3924 5229 5232 12
3925 5233 5234 11
3926 5233 5235 11
3927 5233 5236 12
3928 5237 5238 11
3929 5237 5239 11
3930 5237 5240 12
3931 5241 5242 11
3932 5241 5243 11
3933 5241 5244 12
3934 5245 5246 11
3935 5245 5247 11
3936 5245 5248 12
3937 5249 5250 11
3938 5249 5251 11
3939 5249 5252 12
3940 5253 5254 11
3941 5253 5255 11
3942 5253 5256 12
3943 5257 5258 11
3944 5257 5259 11
3945 5257 5260 12
3946 5261 5262 11
3947 5261 5263 11
3948 5261 5264 12
3949 5265 5266 11
3950 5265 5267 11
3951 5265 5268 12
3952 5269 5270 11
3953 5269 5271 11
3954 5269 5272 12
3955 5273 5274 11
3956 5273 5275 11
3957 5273 5276 12
3958 5277 5278 11
3959 5277 5279 11
3960 5277 5280 12
3961 5281 5282 11
3962 5281 5283 11
3963 5281 5284 12
3964 5285 5286 11
3965 5285 5287 11
3966 5285 5288 12
3967 5289 5290 11
3968 5289 5291 11
3969 5289 5292 12
3970 5293 5294 11
3971 5293 5295 11
3972 5293 5296 12
3973 5297 5298 11
3974 5297 5299 11
3975 5297 5300 12
3976 5301 5302 11
3977 5301 5303 11
3978 5301 5304 12
3979 5305 5306 11
3980 5305 5307 11
3981 5305 5308 12
3982 5309 5310 11
3983 5309 5311 11
3984 5309 5312 12
3985 5313 5314 11
3986 5313 5315 11
3987 5313 5316 12
3988 5317 5318 11
3989 5317 5319 11
3990 5317 5320 12
3991 5321 5322 11
3992 5321 5323 11
3993 5321 5324 12
3994 5325 5326 11
3995 5325 5327 11
3996 5325 5328 12
3997 5329 5330 11
3998 5329 5331 11
3999 5329 5332 12
4000 5333 5334 11
4001 5333 5335 11
4002 5333 5336 12
4003 5337 5338 11
4004 5337 5339 11
4005 5337 5340 12
4006 5341 5342 11
4007 5341 5343 11
4008 5341 5344 12
4009 5345 5346 11
4010 5345 5347 11
4011 5345 5348 12
4012 5349 5350 11
4013 5349 5351 11
4014 5349 5352 12
4015 5353 5354 11
4016 5353 5355 11
4017 5353 5356 12
4018 5357 5358 11
4019 5357 5359 11
4020 5357 5360 12
4021 5361 5362 11
4022 5361 5363 11
4023 5361 5364 12
4024 5365 5366 11
4025 5365 5367 11
4026 5365 5368 12
4027 5369 5370 11
4028 5369 5371 11
4029 5369 5372 12
4030 5373 5374 11
4031 5373 5375 11
4032 5373 5376 12
4033 5377 5378 11
4034 5377 5379 11
4035 5377 5380 12
4036 5381 5382 11
4037 5381 5383 11
4038 5381 5384 12
4039 5385 5386 11
4040 5385 5387 11
4041 5385 5388 12
4042 5389 5390 11
4043 5389 5391 11
4044 5389 5392 12
4045 5393 5394 11
4046 5393 5395 11
4047 5393 5396 12
4048 5397 5398 11
4049 5397 5399 11
4050 5397 5400 12
4051 5401 5402 11
4052 5401 5403 11
4053 5401 5404 12
4054 5405 5406 11
4055 5405 5407 11
4056 5405 5408 12
4057 5409 5410 11
4058 5409 5411 11
4059 5409 5412 12
4060 5413 5414 11
4061 5413 5415 11
4062 5413 5416 12
4063 5417 5418 11
4064 5417 5419 11
4065 5417 5420 12
4066 5421 5422 11
4067 5421 5423 11
4068 5421 5424 12
4069 5425 5426 11
4070 5425 5427 11
4071 5425 5428 12
4072 5429 5430 11
4073 5429 5431 11
4074 5429 5432 12
4075 5433 5434 11
4076 5433 5435 11
4077 5433 5436 12
4078 5437 5438 11
4079 5437 5439 11
4080 5437 5440 12
4081 5441 5442 11
4082 5441 5443 11
4083 5441 5444 12
4084 5445 5446 11
4085 5445 5447 11
4086 5445 5448 12
4087 5449 5450 11
4088 5449 5451 11
4089 5449 5452 12
4090 5453 5454 11
4091 5453 5455 11
4092 5453 5456 12
4093 5457 5458 11
4094 5457 5459 11
4095 5457 5460 12
4096 5461 5462 11
4097 5461 5463 11
4098 5461 5464 12
4099 5465 5466 11
4100 5465 5467 11
4101 5465 5468 12
4102 5469 5470 11
4103 5469 5471 11
4104 5469 5472 12
4105 5473 5474 11
4106 5473 5475 11
4107 5473 5476 12
4108 5477 5478 11
4109 5477 5479 11
4110 5477 5480 12
4111 5481 5482 11
4112 5481 5483 11
4113 5481 5484 12
4114 5485 5486 11
4115 5485 5487 11
4116 5485 5488 12
4117 5489 5490 11
4118 5489 5491 11
4119 5489 5492 12
4120 5493 5494 11
4121 5493 5495 11
4122 5493 5496 12
4123 5497 5498 11
4124 5497 5499 11
4125 5497 5500 12
4126 5501 5502 11
4127 5501 5503 11
4128 5501 5504 12
4129 5505 5506 11
4130 5505 5507 11
4131 5505 5508 12
4132 5509 5510 11
4133 5509 5511 11
4134 5509 5512 12
4135 5513 5514 11
4136 5513 5515 11
4137 5513 5516 12
4138 5517 5518 11
4139 5517 5519 11
4140 5517 5520 12
4141 5521 5522 11
4142 5521 5523 11
4143 5521 5524 12
4144 5525 5526 11
4145 5525 5527 11
4146 5525 5528 12
4147 5529 5530 11
4148 5529 5531 11
4149 5529 5532 12
4150 5533 5534 11
4151 5533 5535 11
4152 5533 5536 12
4153 5537 5538 11
4154 5537 5539 11
4155 5537 5540 12
4156 5541 5542 11
4157 5541 5543 11
4158 5541 5544 12
4159 5545 5546 11
4160 5545 5547 11
4161 5545 5548 12
4162 5549 5550 11
4163 5549 5551 11
4164 5549 5552 12
4165 5553 5554 11
4166 5553 5555 11
4167 5553 5556 12
4168 5557 5558 11
4169 5557 5559 11
4170 5557 5560 12
4171 5561 5562 11
4172 5561 5563 11
4173 5561 5564 12
4174 5565 5566 11
4175 5565 5567 11
4176 5565 5568 12
4177 5569 5570 11
4178 5569 5571 11
4179 5569 5572 12
4180 5573 5574 11
4181 5573 5575 11
4182 5573 5576 12
4183 5577 5578 11
4184 5577 5579 11
4185 5577 5580 12
4186 5581 5582 11
4187 5581 5583 11
4188 5581 5584 12
4189 5585 5586 11
4190 5585 5587 11
4191 5585 5588 12
4192 5589 5590 11
4193 5589 5591 11
4194 5589 5592 12
4195 5593 5594 11
4196 5593 5595 11
4197 5593 5596 12
4198 5597 5598 11
4199 5597 5599 11
4200 5597 5600 12
4201 5601 5602 11
4202 5601 5603 11
4203 5601 5604 12
4204 5605 5606 11
4205 5605 5607 11
4206 5605 5608 12
4207 5609 5610 11
4208 5609 5611 11
4209 5609 5612 12
4210 5613 5614 11
4211 5613 5615 11
4212 5613 5616 12
4213 5617 5618 11
4214 5617 5619 11
4215 5617 5620 12
4216 5621 5622 11
4217 5621 5623 11
4218 5621 5624 12
4219 5625 5626 11
4220 5625 5627 11
4221 5625 5628 12
4222 5629 5630 11
4223 5629 5631 11
4224 5629 5632 12
4225 5633 5634 11
4226 5633 5635 11
4227 5633 5636 12
4228 5637 5638 11
4229 5637 5639 11
4230 5637 5640 12
4231 5641 5642 11
4232 5641 5643 11
4233 5641 5644 12
4234 5645 5646 11
4235 5645 5647 11
4236 5645 5648 12
4237 5649 5650 11
4238 5649 5651 11
4239 5649 5652 12
4240 5653 5654 11
4241 5653 5655 11
4242 5653 5656 12
4243 5657 5658 11
4244 5657 5659 11
4245 5657 5660 12
4246 5661 5662 11
4247 5661 5663 11
4248 5661 5664 12
4249 5665 5666 11
4250 5665 5667 11
4251 5665 5668 12
4252 5669 5670 11
4253 5669 5671 11
4254 5669 5672 12
4255 5673 5674 11
4256 5673 5675 11
4257 5673 5676 12
4258 5677 5678 11
4259 5677 5679 11
4260 5677 5680 12
4261 5681 5682 11
4262 5681 5683 11
4263 5681 5684 12
4264 5685 5686 11
4265 5685 5687 11
4266 5685 5688 12
4267 5689 5690 11
4268 5689 5691 11
4269 5689 5692 12
4270 5693 5694 11
4271 5693 5695 11
4272 5693 5696 12
4273 5697 5698 11
4274 5697 5699 11
4275 5697 5700 12
4276 5701 5702 11
4277 5701 5703 11
4278 5701 5704 12
4279 5705 5706 11
4280 5705 5707 11
4281 5705 5708 12
4282 5709 5710 11
4283 5709 5711 11
4284 5709 5712 12
4285 5713 5714 11
4286 5713 5715 11
4287 5713 5716 12
4288 5717 5718 11
4289 5717 5719 11
4290 5717 5720 12
4291 5721 5722 11
4292 5721 5723 11
4293 5721 5724 12
4294 5725 5726 11
4295 5725 5727 11
4296 5725 5728 12
4297 5729 5730 11
4298 5729 5731 11
4299 5729 5732 12
4300 5733 5734 11
4301 5733 5735 11
4302 5733 5736 12
4303 5737 5738 11
4304 5737 5739 11
4305 5737 5740 12
4306 5741 5742 11
4307 5741 5743 11
4308 5741 5744 12
4309 5745 5746 11
4310 5745 5747 11
4311 5745 5748 12
4312 5749 5750 11
4313 5749 5751 11
4314 5749 5752 12
4315 5753 5754 11
4316 5753 5755 11
4317 5753 5756 12
4318 5757 5758 11
4319 5757 5759 11
4320 5757 5760 12
4321 5761 5762 11
4322 5761 5763 11
4323 5761 5764 12
4324 5765 5766 11
4325 5765 5767 11
4326 5765 5768 12
4327 5769 5770 11
4328 5769 5771 11
4329 5769 5772 12
4330 5773 5774 11
4331 5773 5775 11
4332 5773 5776 12
4333 5777 5778 11
4334 5777 5779 11
4335 5777 5780 12
4336 5781 5782 11
4337 5781 5783 11
4338 5781 5784 12
4339 5785 5786 11
4340 5785 5787 11
4341 5785 5788 12
4342 5789 5790 11
4343 5789 5791 11
4344 5789 5792 12
4345 5793 5794 11
4346 5793 5795 11
4347 5793 5796 12
4348 5797 5798 11
4349 5797 5799 11
4350 5797 5800 12
4351 5801 5802 11
4352 5801 5803 11
4353 5801 5804 12
4354 5805 5806 11
4355 5805 5807 11
4356 5805 5808 12
4357 5809 5810 11
4358 5809 5811 11
4359 5809 5812 12
4360 5813 5814 11
4361 5813 5815 11
4362 5813 5816 12
4363 5817 5818 11
4364 5817 5819 11
4365 5817 5820 12
4366 5821 5822 11
4367 5821 5823 11
4368 5821 5824 12
4369 5825 5826 11
4370 5825 5827 11
4371 5825 5828 12
4372 5829 5830 11
4373 5829 5831 11
4374 5829 5832 12
4375 5833 5834 11
4376 5833 5835 11
4377 5833 5836 12
4378 5837 5838 11
4379 5837 5839 11
4380 5837 5840 12
4381 5841 5842 11
4382 5841 5843 11
4383 5841 5844 12
4384 5845 5846 11
4385 5845 5847 11
4386 5845 5848 12
4387 5849 5850 11
4388 5849 5851 11
4389 5849 5852 12
4390 5853 5854 11
4391 5853 5855 11
4392 5853 5856 12
4393 5857 5858 11
4394 5857 5859 11
4395 5857 5860 12
4396 5861 5862 11
4397 5861 5863 11
4398 5861 5864 12
4399 5865 5866 11
4400 5865 5867 11
4401 5865 5868 12
4402 5869 5870 11
4403 5869 5871 11
4404 5869 5872 12
4405 5873 5874 11
4406 5873 5875 11
4407 5873 5876 12
4408 5877 5878 11
4409 5877 5879 11
4410 5877 5880 12
4411 5881 5882 11
4412 5881 5883 11
4413 5881 5884 12
4414 5885 5886 11
4415 5885 5887 11
4416 5885 5888 12
4417 5889 5890 11
4418 5889 5891 11
4419 5889 5892 12
4420 5893 5894 11
4421 5893 5895 11
4422 5893 5896 12
4423 5897 5898 11
4424 5897 5899 11
4425 5897 5900 12
4426 5901 5902 11
4427 5901 5903 11
4428 5901 5904 12
4429 5905 5906 11
4430 5905 5907 11
4431 5905 5908 12
4432 5909 5910 11
4433 5909 5911 11
4434 5909 5912 12
4435 5913 5914 11
4436 5913 5915 11
4437 5913 5916 12
4438 5917 5918 11
4439 5917 5919 11
4440 5917 5920 12
4441 5921 5922 11
4442 5921 5923 11
4443 5921 5924 12
4444 5925 5926 11
4445 5925 5927 11
4446 5925 5928 12
4447 5929 5930 11
4448 5929 5931 11
4449 5929 5932 12
4450 5933 5934 11
4451 5933 5935 11
4452 5933 5936 12
4453 5937 5938 11
4454 5937 5939 11
4455 5937 5940 12
4456 5941 5942 11
4457 5941 5943 11
4458 5941 5944 12
4459 5945 5946 11
4460 5945 5947 11
4461 5945 5948 12
4462 5949 5950 11
4463 5949 5951 11
4464 5949 5952 12
4465 5953 5954 11
4466 5953 5955 11
4467 5953 5956 12
4468 5957 5958 11
4469 5957 5959 11
4470 5957 5960 12
4471 5961 5962 11
4472 5961 5963 11
4473 5961 5964 12
4474 5965 5966 11
4475 5965 5967 11
4476 5965 5968 12
4477 5969 5970 11
4478 5969 5971 11
4479 5969 5972 12
4480 5973 5974 11
4481 5973 5975 11
4482 5973 5976 12
4483 5977 5978 11
4484 5977 5979 11
4485 5977 5980 12
4486 5981 5982 11
4487 5981 5983 11
4488 5981 5984 12
4489 5985 5986 11
4490 5985 5987 11
4491 5985 5988 12
4492 5989 5990 11
4493 5989 5991 11
4494 5989 5992 12
4495 5993 5994 11
4496 5993 5995 11
4497 5993 5996 12
4498 5997 5998 11
4499 5997 5999 11
4500 5997 6000 12
4501 6001 6002 11
4502 6001 6003 11
4503 6001 6004 12
4504 6005 6006 11
4505 6005 6007 11
4506 6005 6008 12
4507 6009 6010 11
4508 6009 6011 11
4509 6009 6012 12
4510 6013 6014 11
4511 6013 6015 11
4512 6013 6016 12
4513 6017 6018 11
4514 6017 6019 11
4515 6017 6020 12
4516 6021 6022 11
4517 6021 6023 11
4518 6021 6024 12
4519 6025 6026 11
4520 6025 6027 11
4521 6025 6028 12
4522 6029 6030 11
4523 6029 6031 11
4524 6029 6032 12
4525 6033 6034 11
4526 6033 6035 11
4527 6033 6036 12
4528 6037 6038 11
4529 6037 6039 11
4530 6037 6040 12
4531 6041 6042 11
4532 6041 6043 11
4533 6041 6044 12
4534 6045 6046 11
4535 6045 6047 11
4536 6045 6048 12
4537 6049 6050 11
4538 6049 6051 11
4539 6049 6052 12
4540 6053 6054 11
4541 6053 6055 11
4542 6053 6056 12
4543 6057 6058 11
4544 6057 6059 11
4545 6057 6060 12
4546 6061 6062 11
4547 6061 6063 11
4548 6061 6064 12
4549 6065 6066 11
4550 6065 6067 11
4551 6065 6068 12
4552 6069 6070 11
4553 6069 6071 11
4554 6069 6072 12
4555 6073 6074 11
4556 6073 6075 11
4557 6073 6076 12
4558 6077 6078 11
4559 6077 6079 11
4560 6077 6080 12
4561 6081 6082 11
4562 6081 6083 11
4563 6081 6084 12
4564 6085 6086 11
4565 6085 6087 11
4566 6085 6088 12
4567 6089 6090 11
4568 6089 6091 11
4569 6089 6092 12
4570 6093 6094 11
4571 6093 6095 11
4572 6093 6096 12
4573 6097 6098 11
4574 6097 6099 11
4575 6097 6100 12
4576 6101 6102 11
4577 6101 6103 11
4578 6101 6104 12
4579 6105 6106 11
4580 6105 6107 11
4581 6105 6108 12
4582 6109 6110 11
4583 6109 6111 11
4584 6109 6112 12
4585 6113 6114 11
4586 6113 6115 11
4587 6113 6116 12
4588 6117 6118 11
4589 6117 6119 11
4590 6117 6120 12
4591 6121 6122 11
4592 6121 6123 11
4593 6121 6124 12
4594 6125 6126 11
4595 6125 6127 11
4596 6125 6128 12
4597 6129 6130 11
4598 6129 6131 11
4599 6129 6132 12
4600 6133 6134 11
4601 6133 6135 11
4602 6133 6136 12
4603 6137 6138 11
4604 6137 6139 11
4605 6137 6140 12
4606 6141 6142 11
4607 6141 6143 11
4608 6141 6144 12
4609 6145 6146 11
4610 6145 6147 11
4611 6145 6148 12
4612 6149 6150 11
4613 6149 6151 11
4614 6149 6152 12
4615 6153 6154 11
4616 6153 6155 11
4617 6153 6156 12
4618 6157 6158 11
4619 6157 6159 11
4620 6157 6160 12
4621 6161 6162 11
4622 6161 6163 11
4623 6161 6164 12
4624 6165 6166 11
4625 6165 6167 11
4626 6165 6168 12
4627 6169 6170 11
4628 6169 6171 11
4629 6169 6172 12
4630 6173 6174 11
4631 6173 6175 11
4632 6173 6176 12
4633 6177 6178 11
4634 6177 6179 11
4635 6177 6180 12
4636 6181 6182 11
4637 6181 6183 11
4638 6181 6184 12
4639 6185 6186 11
4640 6185 6187 11
4641 6185 6188 12
4642 6189 6190 11
4643 6189 6191 11
4644 6189 6192 12
4645 6193 6194 11
4646 6193 6195 11
4647 6193 6196 12
4648 6197 6198 11
4649 6197 6199 11
4650 6197 6200 12
4651 6201 6202 11
4652 6201 6203 11
4653 6201 6204 12
4654 6205 6206 11
4655 6205 6207 11
4656 6205 6208 12
4657 6209 6210 11
4658 6209 6211 11
4659 6209 6212 12
4660 6213 6214 11
4661 6213 6215 11
4662 6213 6216 12
4663 6217 6218 11
4664 6217 6219 11
4665 6217 6220 12
4666 6221 6222 11
4667 6221 6223 11
4668 6221 6224 12
4669 6225 6226 11
4670 6225 6227 11
4671 6225 6228 12
4672 6229 6230 11
4673 6229 6231 11
4674 6229 6232 12
4675 6233 6234 11
4676 6233 6235 11
4677 6233 6236 12
4678 6237 6238 11
4679 6237 6239 11
4680 6237 6240 12
4681 6241 6242 11
4682 6241 6243 11
4683 6241 6244 12
4684 6245 6246 11
4685 6245 6247 11
4686 6245 6248 12
4687 6249 6250 11
4688 6249 6251 11
4689 6249 6252 12
4690 6253 6254 11
4691 6253 6255 11
4692 6253 6256 12
4693 6257 6258 11
4694 6257 6259 11
4695 6257 6260 12
4696 6261 6262 11
4697 6261 6263 11
4698 6261 6264 12
4699 6265 6266 11
4700 6265 6267 11
4701 6265 6268 12
4702 6269 6270 11
4703 6269 6271 11
4704 6269 6272 12
4705 6273 6274 11
4706 6273 6275 11
4707 6273 6276 12
4708 6277 6278 11
4709 6277 6279 11
4710 6277 6280 12
4711 6281 6282 11
4712 6281 6283 11
4713 6281 6284 12
4714 6285 6286 11
4715 6285 6287 11
4716 6285 6288 12
4717 6289 6290 11
4718 6289 6291 11
4719 6289 6292 12
4720 6293 6294 11
4721 6293 6295 11
4722 6293 6296 12
4723 6297 6298 11
4724 6297 6299 11
4725 6297 6300 12
4726 6301 6302 11
4727 6301 6303 11
4728 6301 6304 12
4729 6305 6306 11
4730 6305 6307 11
4731 6305 6308 12
4732 6309 6310 11
4733 6309 6311 11
4734 6309 6312 12
4735 6313 6314 11
4736 6313 6315 11
4737 6313 6316 12
4738 6317 6318 11
4739 6317 6319 11
4740 6317 6320 12
4741 6321 6322 11
4742 6321 6323 11
4743 6321 6324 12
4744 6325 6326 11
4745 6325 6327 11
4746 6325 6328 12
4747 6329 6330 11
4748 6329 6331 11
4749 6329 6332 12
4750 6333 6334 11
4751 6333 6335 11
4752 6333 6336 12
4753 6337 6338 11
4754 6337 6339 11
4755 6337 6340 12
4756 6341 6342 11
4757 6341 6343 11
4758 6341 6344 12
4759 6345 6346 11
4760 6345 6347 11
4761 6345 6348 12
4762 6349 6350 11
4763 6349 6351 11
4764 6349 6352 12
4765 6353 6354 11
4766 6353 6355 11
4767 6353 6356 12
4768 6357 6358 11
4769 6357 6359 11
4770 6357 6360 12
4771 6361 6362 11
4772 6361 6363 11
4773 6361 6364 12
4774 6365 6366 11
4775 6365 6367 11
4776 6365 6368 12
4777 6369 6370 11
4778 6369 6371 11
4779 6369 6372 12
4780 6373 6374 11
4781 6373 6375 11
4782 6373 6376 12
4783 6377 6378 11
4784 6377 6379 11
4785 6377 6380 12
4786 6381 6382 11
4787 6381 6383 11
4788 6381 6384 12
4789 6385 6386 11
4790 6385 6387 11
4791 6385 6388 12
4792 6389 6390 11
4793 6389 6391 11
4794 6389 6392 12
4795 6393 6394 11
4796 6393 6395 11
4797 6393 6396 12
4798 6397 6398 11
4799 6397 6399 11
4800 6397 6400 12
4801 6401 6402 11
4802 6401 6403 11
4803 6401 6404 12
4804 6405 6406 11
4805 6405 6407 11
4806 6405 6408 12
4807 6409 6410 11
4808 6409 6411 11
4809 6409 6412 12
4810 6413 6414 11
4811 6413 6415 11
4812 6413 6416 12
4813 6417 6418 11
4814 6417 6419 11
4815 6417 6420 12
4816 6421 6422 11
4817 6421 6423 11
4818 6421 6424 12
4819 6425 6426 11
4820 6425 6427 11
4821 6425 6428 12
4822 6429 6430 11
4823 6429 6431 11
4824 6429 6432 12
4825 6433 6434 11
4826 6433 6435 11
4827 6433 6436 12
4828 6437 6438 11
4829 6437 6439 11
4830 6437 6440 12
4831 6441 6442 11
4832 6441 6443 11
4833 6441 6444 12
4834 6445 6446 11
4835 6445 6447 11
4836 6445 6448 12
4837 6449 6450 11
4838 6449 6451 11
4839 6449 6452 12
4840 6453 6454 11
4841 6453 6455 11
4842 6453 6456 12
4843 6457 6458 11
4844 6457 6459 11
4845 6457 6460 12
4846 6461 6462 11
4847 6461 6463 11
4848 6461 6464 12
4849 6465 6466 11
4850 6465 6467 11
4851 6465 6468 12
4852 6469 6470 11
4853 6469 6471 11
4854 6469 6472 12
4855 6473 6474 11
4856 6473 6475 11
4857 6473 6476 12
4858 6477 6478 11
4859 6477 6479 11
4860 6477 6480 12
4861 6481 6482 11
4862 6481 6483 11
4863 6481 6484 12
4864 6485 6486 11
4865 6485 6487 11
4866 6485 6488 12
4867 6489 6490 11
4868 6489 6491 11
4869 6489 6492 12
4870 6493 6494 11
4871 6493 6495 11
4872 6493 6496 12
4873 6497 6498 11
4874 6497 6499 11
4875 6497 6500 12
4876 6501 6502 11
4877 6501 6503 11
4878 6501 6504 12
4879 6505 6506 11
4880 6505 6507 11
4881 6505 6508 12
4882 6509 6510 11
4883 6509 6511 11
4884 6509 6512 12
4885 6513 6514 11
4886 6513 6515 11
4887 6513 6516 12
4888 6517 6518 11
4889 6517 6519 11
4890 6517 6520 12
4891 6521 6522 11
4892 6521 6523 11
4893 6521 6524 12
4894 6525 6526 11
4895 6525 6527 11
4896 6525 6528 12
4897 6529 6530 11
4898 6529 6531 11
4899 6529 6532 12
4900 6533 6534 11
4901 6533 6535 11
4902 6533 6536 12
4903 6537 6538 11
4904 6537 6539 11
4905 6537 6540 12
4906 6541 6542 11
4907 6541 6543 11
4908 6541 6544 12
4909 6545 6546 11
4910 6545 6547 11
4911 6545 6548 12
4912 6549 6550 11
4913 6549 6551 11
4914 6549 6552 12
4915 6553 6554 11
4916 6553 6555 11
4917 6553 6556 12
4918 6557 6558 11
4919 6557 6559 11
4920 6557 6560 12
4921 6561 6562 11
4922 6561 6563 11
4923 6561 6564 12
4924 6565 6566 11
4925 6565 6567 11
4926 6565 6568 12
4927 6569 6570 11
4928 6569 6571 11
4929 6569 6572 12
4930 6573 6574 11
4931 6573 6575 11
4932 6573 6576 12
4933 6577 6578 11
4934 6577 6579 11
4935 6577 6580 12
4936 6581 6582 11
4937 6581 6583 11
4938 6581 6584 12
4939 6585 6586 11
4940 6585 6587 11
4941 6585 6588 12
4942 6589 6590 11
4943 6589 6591 11
4944 6589 6592 12
4945 6593 6594 11
4946 6593 6595 11
4947 6593 6596 12
4948 6597 6598 11
4949 6597 6599 11
4950 6597 6600 12
4951 6601 6602 11
4952 6601 6603 11
4953 6601 6604 12
4954 6605 6606 11
4955 6605 6607 11
4956 6605 6608 12
4957 6609 6610 11
4958 6609 6611 11
4959 6609 6612 12
4960 6613 6614 11
4961 6613 6615 11
4962 6613 6616 12
4963 6617 6618 11
4964 6617 6619 11
4965 6617 6620 12
4966 6621 6622 11
4967 6621 6623 11
4968 6621 6624 12
4969 6625 6626 11
4970 6625 6627 11
4971 6625 6628 12
4972 6629 6630 11
4973 6629 6631 11
4974 6629 6632 12
4975 6633 6634 11
4976 6633 6635 11
4977 6633 6636 12
4978 6637 6638 11
4979 6637 6639 11
4980 6637 6640 12
4981 6641 6642 11
4982 6641 6643 11
4983 6641 6644 12
4984 6645 6646 11
4985 6645 6647 11
4986 6645 6648 12
4987 6649 6650 11
4988 6649 6651 11
4989 6649 6652 12
4990 6653 6654 11
4991 6653 6655 11
4992 6653 6656 12
4993 6657 6658 11
4994 6657 6659 11
4995 6657 6660 12
4996 6661 6662 11
4997 6661 6663 11
4998 6661 6664 12
4999 6665 6666 11
5000 6665 6667 11
5001 6665 6668 12
5002 6669 6670 11
5003 6669 6671 11
5004 6669 6672 12
5005 6673 6674 11
5006 6673 6675 11
5007 6673 6676 12
5008 6677 6678 11
5009 6677 6679 11
5010 6677 6680 12
5011 6681 6682 11
5012 6681 6683 11
5013 6681 6684 12
5014 6685 6686 11
5015 6685 6687 11
5016 6685 6688 12
5017 6689 6690 11
5018 6689 6691 11
5019 6689 6692 12
5020 6693 6694 11
5021 6693 6695 11
5022 6693 6696 12
5023 6697 6698 11
5024 6697 6699 11
5025 6697 6700 12
5026 6701 6702 11
5027 6701 6703 11
5028 6701 6704 12
5029 6705 6706 11
5030 6705 6707 11
5031 6705 6708 12
5032 6709 6710 11
5033 6709 6711 11
5034 6709 6712 12
5035 6713 6714 11
5036 6713 6715 11
5037 6713 6716 12
5038 6717 6718 11
5039 6717 6719 11
5040 6717 6720 12
5041 6721 6722 11
5042 6721 6723 11
5043 6721 6724 12
5044 6725 6726 11
5045 6725 6727 11
5046 6725 6728 12
5047 6729 6730 11
5048 6729 6731 11
5049 6729 6732 12
5050 6733 6734 11
5051 6733 6735 11
5052 6733 6736 12
5053 6737 6738 11
5054 6737 6739 11
5055 6737 6740 12
5056 6741 6742 11
5057 6741 6743 11
5058 6741 6744 12
5059 6745 6746 11
5060 6745 6747 11
5061 6745 6748 12
5062 6749 6750 11
5063 6749 6751 11
5064 6749 6752 12
5065 6753 6754 11
5066 6753 6755 11
5067 6753 6756 12
5068 6757 6758 11
5069 6757 6759 11
5070 6757 6760 12
5071 6761 6762 11
5072 6761 6763 11
5073 6761 6764 12
5074 6765 6766 11
5075 6765 6767 11
5076 6765 6768 12
5077 6769 6770 11
5078 6769 6771 11
5079 6769 6772 12
5080 6773 6774 11
5081 6773 6775 11
5082 6773 6776 12
5083 6777 6778 11
5084 6777 6779 11
5085 6777 6780 12
5086 6781 6782 11
5087 6781 6783 11
5088 6781 6784 12
5089 6785 6786 11
5090 6785 6787 11
5091 6785 6788 12
5092 6789 6790 11
5093 6789 6791 11
5094 6789 6792 12
5095 6793 6794 11
5096 6793 6795 11
5097 6793 6796 12
5098 6797 6798 11
5099 6797 6799 11
5100 6797 6800 12
5101 6801 6802 11
5102 6801 6803 11
5103 6801 6804 12
5104 6805 6806 11
5105 6805 6807 11
5106 6805 6808 12
5107 6809 6810 11
5108 6809 6811 11
5109 6809 6812 12
5110 6813 6814 11
5111 6813 6815 11
5112 6813 6816 12
5113 6817 6818 11
5114 6817 6819 11
5115 6817 6820 12
5116 6821 6822 11
5117 6821 6823 11
5118 6821 6824 12
5119 6825 6826 11
5120 6825 6827 11
5121 6825 6828 12
5122 6829 6830 11
5123 6829 6831 11
5124 6829 6832 12
5125 6833 6834 11
5126 6833 6835 11
5127 6833 6836 12
5128 6837 6838 11
5129 6837 6839 11
5130 6837 6840 12
5131 6841 6842 11
5132 6841 6843 11
5133 6841 6844 12
5134 6845 6846 11
5135 6845 6847 11
5136 6845 6848 12
5137 6849 6850 11
5138 6849 6851 11
5139 6849 6852 12
5140 6853 6854 11
5141 6853 6855 11
5142 6853 6856 12
5143 6857 6858 11
5144 6857 6859 11
5145 6857 6860 12
5146 6861 6862 11
5147 6861 6863 11
5148 6861 6864 12
5149 6865 6866 11
5150 6865 6867 11
5151 6865 6868 12
5152 6869 6870 11
5153 6869 6871 11
5154 6869 6872 12
5155 6873 6874 11
5156 6873 6875 11
5157 6873 6876 12
5158 6877 6878 11
5159 6877 6879 11
5160 6877 6880 12
5161 6881 6882 11
5162 6881 6883 11
5163 6881 6884 12
5164 6885 6886 11
5165 6885 6887 11
5166 6885 6888 12
5167 6889 6890 11
5168 6889 6891 11
5169 6889 6892 12
5170 6893 6894 11
5171 6893 6895 11
5172 6893 6896 12
5173 6897 6898 11
5174 6897 6899 11
5175 6897 6900 12
5176 6901 6902 11
5177 6901 6903 11
5178 6901 6904 12
5179 6905 6906 11
5180 6905 6907 11
5181 6905 6908 12
5182 6909 6910 11
5183 6909 6911 11
5184 6909 6912 12
5185 6913 6914 11
5186 6913 6915 11
5187 6913 6916 12
5188 6917 6918 11
5189 6917 6919 11
5190 6917 6920 12
5191 6921 6922 11
5192 6921 6923 11
5193 6921 6924 12
5194 6925 6926 11
5195 6925 6927 11
5196 6925 6928 12
5197 6929 6930 11
5198 6929 6931 11
5199 6929 6932 12
5200 6933 6934 11
5201 6933 6935 11
5202 6933 6936 12
5203 6937 6938 11
5204 6937 6939 11
5205 6937 6940 12
5206 6941 6942 11
5207 6941 6943 11
5208 6941 6944 12
5209 6945 6946 11
5210 6945 6947 11
5211 6945 6948 12
5212 6949 6950 11
5213 6949 6951 11
5214 6949 6952 12
5215 6953 6954 11
5216 6953 6955 11
5217 6953 6956 12
5218 6957 6958 11
5219 6957 6959 11
5220 6957 6960 12
5221 6961 6962 11
5222 6961 6963 11
5223 6961 6964 12
5224 6965 6966 11
5225 6965 6967 11
5226 6965 6968 12
5227 6969 6970 11
5228 6969 6971 11
5229 6969 6972 12
5230 6973 6974 11
5231 6973 6975 11
5232 6973 6976 12
5233 6977 6978 11
5234 6977 6979 11
5235 6977 6980 12
5236 6981 6982 11
5237 6981 6983 11
5238 6981 6984 12
5239 6985 6986 11
5240 6985 6987 11
5241 6985 6988 12
5242 6989 6990 11
5243 6989 6991 11
5244 6989 6992 12
5245 6993 6994 11
5246 6993 6995 11
5247 6993 6996 12
5248 6997 6998 11
5249 6997 6999 11
5250 6997 7000 12
5251 7001 7002 11
5252 7001 7003 11
5253 7001 7004 12
5254 7005 7006 11
5255 7005 7007 11
5256 7005 7008 12
5257 7009 7010 11
5258 7009 7011 11
5259 7009 7012 12
5260 7013 7014 11
5261 7013 7015 11
5262 7013 7016 12
5263 7017 7018 11
5264 7017 7019 11
5265 7017 7020 12
5266 7021 7022 11
5267 7021 7023 11
5268 7021 7024 12
5269 7025 7026 11
5270 7025 7027 11
5271 7025 7028 12
5272 7029 7030 11
5273 7029 7031 11
5274 7029 7032 12
5275 7033 7034 11
5276 7033 7035 11
5277 7033 7036 12
5278 7037 7038 11
5279 7037 7039 11
5280 7037 7040 12
5281 7041 7042 11
5282 7041 7043 11
5283 7041 7044 12
5284 7045 7046 11
5285 7045 7047 11
5286 7045 7048 12
5287 7049 7050 11
5288 7049 7051 11
5289 7049 7052 12
5290 7053 7054 11
5291 7053 7055 11
5292 7053 7056 12
5293 7057 7058 11
5294 7057 7059 11
5295 7057 7060 12
5296 7061 7062 11
5297 7061 7063 11
5298 7061 7064 12
5299 7065 7066 11
5300 7065 7067 11
5301 7065 7068 12
5302 7069 7070 11
5303 7069 7071 11
5304 7069 7072 12
5305 7073 7074 11
5306 7073 7075 11
5307 7073 7076 12
5308 7077 7078 11
5309 7077 7079 11
5310 7077 7080 12
5311 7081 7082 11
5312 7081 7083 11
5313 7081 7084 12
5314 7085 7086 11
5315 7085 7087 11
5316 7085 7088 12
5317 7089 7090 11
5318 7089 7091 11
5319 7089 7092 12
5320 7093 7094 11
5321 7093 7095 11
5322 7093 7096 12
5323 7097 7098 11
5324 7097 7099 11
5325 7097 7100 12
5326 7101 7102 11
5327 7101 7103 11
5328 7101 7104 12
5329 7105 7106 11
5330 7105 7107 11
5331 7105 7108 12
5332 7109 7110 11
5333 7109 7111 11
5334 7109 7112 12
5335 7113 7114 11
5336 7113 7115 11
5337 7113 7116 12
5338 7117 7118 11
5339 7117 7119 11
5340 7117 7120 12
5341 7121 7122 11
5342 7121 7123 11
5343 7121 7124 12
5344 7125 7126 11
5345 7125 7127 11
5346 7125 7128 12
5347 7129 7130 11
5348 7129 7131 11
5349 7129 7132 12
5350 7133 7134 11
5351 7133 7135 11
5352 7133 7136 12
5353 7137 7138 11
5354 7137 7139 11
5355 7137 7140 12
5356 7141 7142 11
5357 7141 7143 11
5358 7141 7144 12
5359 7145 7146 11
5360 7145 7147 11
5361 7145 7148 12
5362 7149 7150 11
5363 7149 7151 11
5364 7149 7152 12
5365 7153 7154 11
5366 7153 7155 11
5367 7153 7156 12
5368 7157 7158 11
5369 7157 7159 11
5370 7157 7160 12
5371 7161 7162 11
5372 7161 7163 11
5373 7161 7164 12
5374 7165 7166 11
5375 7165 7167 11
5376 7165 7168 12
5377 7169 7170 11
5378 7169 7171 11
5379 7169 7172 12
5380 7173 7174 11
5381 7173 7175 11
5382 7173 7176 12
5383 7177 7178 11
5384 7177 7179 11
5385 7177 7180 12
5386 7181 7182 11
5387 7181 7183 11
5388 7181 7184 12
5389 7185 7186 11
5390 7185 7187 11
5391 7185 7188 12
5392 7189 7190 11
5393 7189 7191 11
5394 7189 7192 12
5395 7193 7194 11
5396 7193 7195 11
5397 7193 7196 12
5398 7197 7198 11
5399 7197 7199 11
5400 7197 7200 12
5401 7201 7202 11
5402 7201 7203 11
5403 7201 7204 12
5404 7205 7206 11
5405 7205 7207 11
5406 7205 7208 12
5407 7209 7210 11
5408 7209 7211 11
5409 7209 7212 12
5410 7213 7214 11
5411 7213 7215 11
5412 7213 7216 12
5413 7217 7218 11
5414 7217 7219 11
5415 7217 7220 12
5416 7221 7222 11
5417 7221 7223 11
5418 7221 7224 12
5419 7225 7226 11
5420 7225 7227 11
5421 7225 7228 12
5422 7229 7230 11
5423 7229 7231 11
5424 7229 7232 12
5425 7233 7234 11
5426 7233 7235 11
5427 7233 7236 12
5428 7237 7238 11
5429 7237 7239 11
5430 7237 7240 12
5431 7241 7242 11
5432 7241 7243 11
5433 7241 7244 12
5434 7245 7246 11
5435 7245 7247 11
5436 7245 7248 12
5437 7249 7250 11
5438 7249 7251 11
5439 7249 7252 12
5440 7253 7254 11
5441 7253 7255 11
5442 7253 7256 12
5443 7257 7258 11
5444 7257 7259 11
5445 7257 7260 12
5446 7261 7262 11
5447 7261 7263 11
5448 7261 7264 12
5449 7265 7266 11
5450 7265 7267 11
5451 7265 7268 12
5452 7269 7270 11
5453 7269 7271 11
5454 7269 7272 12
5455 7273 7274 11
5456 7273 7275 11
5457 7273 7276 12
5458 7277 7278 11
5459 7277 7279 11
5460 7277 7280 12
5461 7281 7282 11
5462 7281 7283 11
5463 7281 7284 12
5464 7285 7286 11
5465 7285 7287 11
5466 7285 7288 12
5467 7289 7290 11
5468 7289 7291 11
5469 7289 7292 12
5470 7293 7294 11
5471 7293 7295 11
5472 7293 7296 12
5473 7297 7298 11
5474 7297 7299 11
5475 7297 7300 12
5476 7301 7302 11
5477 7301 7303 11
5478 7301 7304 12
5479 7305 7306 11
5480 7305 7307 11
5481 7305 7308 12
5482 7309 7310 11
5483 7309 7311 11
5484 7309 7312 12
5485 7313 7314 11
5486 7313 7315 11
5487 7313 7316 12
5488 7317 7318 11
5489 7317 7319 11
5490 7317 7320 12
5491 7321 7322 11
5492 7321 7323 11
5493 7321 7324 12
5494 7325 7326 11
5495 7325 7327 11
5496 7325 7328 12
5497 7329 7330 11
5498 7329 7331 11
5499 7329 7332 12
5500 7333 7334 11
5501 7333 7335 11
5502 7333 7336 12
5503 7337 7338 11
5504 7337 7339 11
5505 7337 7340 12
5506 7341 7342 11
5507 7341 7343 11
5508 7341 7344 12
5509 7345 7346 11
5510 7345 7347 11
5511 7345 7348 12
5512 7349 7350 11
5513 7349 7351 11
5514 7349 7352 12
5515 7353 7354 11
5516 7353 7355 11
5517 7353 7356 12
5518 7357 7358 11
5519 7357 7359 11
5520 7357 7360 12
5521 7361 7362 11
5522 7361 7363 11
5523 7361 7364 12
5524 7365 7366 11
5525 7365 7367 11
5526 7365 7368 12
5527 7369 7370 11
5528 7369 7371 11
5529 7369 7372 12
5530 7373 7374 11
5531 7373 7375 11
5532 7373 7376 12
5533 7377 7378 11
5534 7377 7379 11
5535 7377 7380 12
5536 7381 7382 11
5537 7381 7383 11
5538 7381 7384 12
5539 7385 7386 11
5540 7385 7387 11
5541 7385 7388 12
5542 7389 7390 11
5543 7389 7391 11
5544 7389 7392 12
5545 7393 7394 11
5546 7393 7395 11
5547 7393 7396 12
5548 7397 7398 11
5549 7397 7399 11
5550 7397 7400 12
5551 7401 7402 11
5552 7401 7403 11
5553 7401 7404 12
5554 7405 7406 11
5555 7405 7407 11
5556 7405 7408 12
5557 7409 7410 11
5558 7409 7411 11
5559 7409 7412 12
5560 7413 7414 11
5561 7413 7415 11
5562 7413 7416 12
5563 7417 7418 11
5564 7417 7419 11
5565 7417 7420 12
5566 7421 7422 11
5567 7421 7423 11
5568 7421 7424 12
5569 7425 7426 11
5570 7425 7427 11
5571 7425 7428 12
5572 7429 7430 11
5573 7429 7431 11
5574 7429 7432 12
5575 7433 7434 11
5576 7433 7435 11
5577 7433 7436 12
5578 7437 7438 11
5579 7437 7439 11
5580 7437 7440 12
5581 7441 7442 11
5582 7441 7443 11
5583 7441 7444 12
5584 7445 7446 11
5585 7445 7447 11
5586 7445 7448 12
5587 7449 7450 11
5588 7449 7451 11
5589 7449 7452 12
5590 7453 7454 11
5591 7453 7455 11
5592 7453 7456 12
5593 7457 7458 11
5594 7457 7459 11
5595 7457 7460 12
5596 7461 7462 11
5597 7461 7463 11
5598 7461 7464 12
5599 7465 7466 11
5600 7465 7467 11
5601 7465 7468 12
5602 7469 7470 11
5603 7469 7471 11
5604 7469 7472 12
5605 7473 7474 11
5606 7473 7475 11
5607 7473 7476 12
5608 7477 7478 11
5609 7477 7479 11
5610 7477 7480 12
5611 7481 7482 11
5612 7481 7483 11
5613 7481 7484 12
5614 7485 7486 11
5615 7485 7487 11
5616 7485 7488 12
5617 7489 7490 11
5618 7489 7491 11
5619 7489 7492 12
5620 7493 7494 11
5621 7493 7495 11
5622 7493 7496 12
5623 7497 7498 11
5624 7497 7499 11
5625 7497 7500 12
5626 7501 7502 11
5627 7501 7503 11
5628 7501 7504 12
5629 7505 7506 11
5630 7505 7507 11
5631 7505 7508 12
5632 7509 7510 11
5633 7509 7511 11
5634 7509 7512 12
5635 7513 7514 11
5636 7513 7515 11
5637 7513 7516 12
5638 7517 7518 11
5639 7517 7519 11
5640 7517 7520 12
5641 7521 7522 11
5642 7521 7523 11
5643 7521 7524 12
5644 7525 7526 11
5645 7525 7527 11
5646 7525 7528 12
5647 7529 7530 11
5648 7529 7531 11
5649 7529 7532 12
5650 7533 7534 11
5651 7533 7535 11
5652 7533 7536 12
5653 7537 7538 11
5654 7537 7539 11
5655 7537 7540 12
5656 7541 7542 11
5657 7541 7543 11
5658 7541 7544 12
5659 7545 7546 11
5660 7545 7547 11
5661 7545 7548 12
5662 7549 7550 11
5663 7549 7551 11
5664 7549 7552 12
5665 7553 7554 11
5666 7553 7555 11
5667 7553 7556 12
5668 7557 7558 11
5669 7557 7559 11
5670 7557 7560 12
5671 7561 7562 11
5672 7561 7563 11
5673 7561 7564 12
5674 7565 7566 11
5675 7565 7567 11
5676 7565 7568 12
5677 7569 7570 11
5678 7569 7571 11
5679 7569 7572 12
5680 7573 7574 11
5681 7573 7575 11
5682 7573 7576 12
5683 7577 7578 11
5684 7577 7579 11
5685 7577 7580 12
5686 7581 7582 11
5687 7581 7583 11
5688 7581 7584 12
5689 7585 7586 11
5690 7585 7587 11
5691 7585 7588 12
5692 7589 7590 11
5693 7589 7591 11
5694 7589 7592 12
5695 7593 7594 11
5696 7593 7595 11
5697 7593 7596 12
5698 7597 7598 11
5699 7597 7599 11
5700 7597 7600 12
5701 7601 7602 11
5702 7601 7603 11
5703 7601 7604 12
5704 7605 7606 11
5705 7605 7607 11
5706 7605 7608 12
5707 7609 7610 11
5708 7609 7611 11
5709 7609 7612 12
5710 7613 7614 11
5711 7613 7615 11
5712 7613 7616 12
5713 7617 7618 11
5714 7617 7619 11
5715 7617 7620 12
5716 7621 7622 11
5717 7621 7623 11
5718 7621 7624 12
5719 7625 7626 11
5720 7625 7627 11
5721 7625 7628 12
5722 7629 7630 11
5723 7629 7631 11
5724 7629 7632 12
5725 7633 7634 11
5726 7633 7635 11
5727 7633 7636 12
5728 7637 7638 11
5729 7637 7639 11
5730 7637 7640 12
5731 7641 7642 11
5732 7641 7643 11
5733 7641 7644 12
5734 7645 7646 11
5735 7645 7647 11
5736 7645 7648 12
5737 7649 7650 11
5738 7649 7651 11
5739 7649 7652 12
5740 7653 7654 11
5741 7653 7655 11
5742 7653 7656 12
5743 7657 7658 11
5744 7657 7659 11
5745 7657 7660 12
5746 7661 7662 11
5747 7661 7663 11
5748 7661 7664 12
5749 7665 7666 11
5750 7665 7667 11
5751 7665 7668 12
5752 7669 7670 11
5753 7669 7671 11
5754 7669 7672 12
5755 7673 7674 11
5756 7673 7675 11
5757 7673 7676 12
5758 7677 7678 11
5759 7677 7679 11
5760 7677 7680 12
5761 7681 7682 11
5762 7681 7683 11
5763 7681 7684 12
5764 7685 7686 11
5765 7685 7687 11
5766 7685 7688 12
5767 7689 7690 11
5768 7689 7691 11
5769 7689 7692 12
5770 7693 7694 11
5771 7693 7695 11
5772 7693 7696 12
5773 7697 7698 11
5774 7697 7699 11
5775 7697 7700 12
5776 7701 7702 11
5777 7701 7703 11
5778 7701 7704 12
5779 7705 7706 11
5780 7705 7707 11
5781 7705 7708 12
5782 7709 7710 11
5783 7709 7711 11
5784 7709 7712 12
5785 7713 7714 11
5786 7713 7715 11
5787 7713 7716 12
5788 7717 7718 11
5789 7717 7719 11
5790 7717 7720 12
5791 7721 7722 11
5792 7721 7723 11
5793 7721 7724 12
5794 7725 7726 11
5795 7725 7727 11
5796 7725 7728 12
5797 7729 7730 11
5798 7729 7731 11
5799 7729 7732 12
5800 7733 7734 11
5801 7733 7735 11
5802 7733 7736 12
5803 7737 7738 11
5804 7737 7739 11
5805 7737 7740 12
5806 7741 7742 11
5807 7741 7743 11
5808 7741 7744 12
5809 7745 7746 11
5810 7745 7747 11
5811 7745 7748 12
5812 7749 7750 11
5813 7749 7751 11
5814 7749 7752 12
5815 7753 7754 11
5816 7753 7755 11
5817 7753 7756 12
5818 7757 7758 11
5819 7757 7759 11
5820 7757 7760 12
5821 7761 7762 11
5822 7761 7763 11
5823 7761 7764 12
5824 7765 7766 11
5825 7765 7767 11
5826 7765 7768 12
5827 7769 7770 11
5828 7769 7771 11
5829 7769 7772 12
5830 7773 7774 11
5831 7773 7775 11
5832 7773 7776 12
5833 7777 7778 11
5834 7777 7779 11
5835 7777 7780 12
5836 7781 7782 11
5837 7781 7783 11
5838 7781 7784 12
5839 7785 7786 11
5840 7785 7787 11
5841 7785 7788 12
5842 7789 7790 11
5843 7789 7791 11
5844 7789 7792 12
5845 7793 7794 11
5846 7793 7795 11
5847 7793 7796 12
5848 7797 7798 11
5849 7797 7799 11
5850 7797 7800 12
5851 7801 7802 11
5852 7801 7803 11
5853 7801 7804 12
5854 7805 7806 11
5855 7805 7807 11
5856 7805 7808 12
5857 7809 7810 11
5858 7809 7811 11
5859 7809 7812 12
5860 7813 7814 11
5861 7813 7815 11
5862 7813 7816 12
5863 7817 7818 11
5864 7817 7819 11
5865 7817 7820 12
5866 7821 7822 11
5867 7821 7823 11
5868 7821 7824 12
5869 7825 7826 11
5870 7825 7827 11
5871 7825 7828 12
5872 7829 7830 11
5873 7829 7831 11
5874 7829 7832 12
5875 7833 7834 11
5876 7833 7835 11
5877 7833 7836 12
5878 7837 7838 11
5879 7837 7839 11
5880 7837 7840 12
5881 7841 7842 11
5882 7841 7843 11
5883 7841 7844 12
5884 7845 7846 11
5885 7845 7847 11
5886 7845 7848 12
5887 7849 7850 11
5888 7849 7851 11
5889 7849 7852 12
5890 7853 7854 11
5891 7853 7855 11
5892 7853 7856 12
5893 7857 7858 11
5894 7857 7859 11
5895 7857 7860 12
5896 7861 7862 11
5897 7861 7863 11
5898 7861 7864 12
5899 7865 7866 11
5900 7865 7867 11
5901 7865 7868 12
5902 7869 7870 11
5903 7869 7871 11
5904 7869 7872 12
5905 7873 7874 11
5906 7873 7875 11
5907 7873 7876 12
5908 7877 7878 11
5909 7877 7879 11
5910 7877 7880 12
5911 7881 7882 11
5912 7881 7883 11
5913 7881 7884 12
5914 7885 7886 11
5915 7885 7887 11
5916 7885 7888 12
5917 7889 7890 11
5918 7889 7891 11
5919 7889 7892 12
5920 7893 7894 11
5921 7893 7895 11
5922 7893 7896 12
5923 7897 7898 11
5924 7897 7899 11
5925 7897 7900 12
5926 7901 7902 11
5927 7901 7903 11
5928 7901 7904 12
5929 7905 7906 11
5930 7905 7907 11
5931 7905 7908 12
5932 7909 7910 11
5933 7909 7911 11
5934 7909 7912 12
5935 7913 7914 11
5936 7913 7915 11
5937 7913 7916 12
5938 7917 7918 11
5939 7917 7919 11
5940 7917 7920 12
5941 7921 7922 11
5942 7921 7923 11
5943 7921 7924 12
5944 7925 7926 11
5945 7925 7927 11
5946 7925 7928 12
5947 7929 7930 11
5948 7929 7931 11
5949 7929 7932 12
5950 7933 7934 11
5951 7933 7935 11
5952 7933 7936 12
5953 7937 7938 11
5954 7937 7939 11
5955 7937 7940 12
5956 7941 7942 11
5957 7941 7943 11
5958 7941 7944 12
5959 7945 7946 11
5960 7945 7947 11
5961 7945 7948 12
5962 7949 7950 11
5963 7949 7951 11
5964 7949 7952 12
5965 7953 7954 11
5966 7953 7955 11
5967 7953 7956 12
5968 7957 7958 11
5969 7957 7959 11
5970 7957 7960 12
5971 7961 7962 11
5972 7961 7963 11
5973 7961 7964 12
5974 7965 7966 11
5975 7965 7967 11
5976 7965 7968 12
5977 7969 7970 11
5978 7969 7971 11
5979 7969 7972 12
5980 7973 7974 11
5981 7973 7975 11
5982 7973 7976 12
5983 7977 7978 11
5984 7977 7979 11
5985 7977 7980 12
5986 7981 7982 11
5987 7981 7983 11
5988 7981 7984 12
5989 7985 7986 11
5990 7985 7987 11
5991 7985 7988 12
5992 7989 7990 11
5993 7989 7991 11
5994 7989 7992 12
5995 7993 7994 11
5996 7993 7995 11
5997 7993 7996 12
5998 7997 7998 11
5999 7997 7999 11
6000 7997 8000 12
6001 8001 8002 11
6002 8001 8003 11
6003 8001 8004 12
6004 8005 8006 11
6005 8005 8007 11
6006 8005 8008 12
6007 8009 8010 11
6008 8009 8011 11
6009 8009 8012 12
6010 8013 8014 11
6011 8013 8015 11
6012 8013 8016 12
6013 8017 8018 11
6014 8017 8019 11
6015 8017 8020 12
6016 8021 8022 11
6017 8021 8023 11
6018 8021 8024 12
6019 8025 8026 11
6020 8025 8027 11
6021 8025 8028 12
6022 8029 8030 11
6023 8029 8031 11
6024 8029 8032 12
6025 8033 8034 11
6026 8033 8035 11
6027 8033 8036 12
6028 8037 8038 11
6029 8037 8039 11
6030 8037 8040 12
6031 8041 8042 11
6032 8041 8043 11
6033 8041 8044 12
6034 8045 8046 11
6035 8045 8047 11
6036 8045 8048 12
6037 8049 8050 11
6038 8049 8051 11
6039 8049 8052 12
6040 8053 8054 11
6041 8053 8055 11
6042 8053 8056 12
6043 8057 8058 11
6044 8057 8059 11
6045 8057 8060 12
6046 8061 8062 11
6047 8061 8063 11
6048 8061 8064 12
6049 8065 8066 11
6050 8065 8067 11
6051 8065 8068 12
6052 8069 8070 11
6053 8069 8071 11
6054 8069 8072 12
6055 8073 8074 11
6056 8073 8075 11
6057 8073 8076 12
6058 8077 8078 11
6059 8077 8079 11
6060 8077 8080 12
6061 8081 8082 11
6062 8081 8083 11
6063 8081 8084 12
6064 8085 8086 11
6065 8085 8087 11
6066 8085 8088 12
6067 8089 8090 11
6068 8089 8091 11
6069 8089 8092 12
6070 8093 8094 11
6071 8093 8095 11
6072 8093 8096 12
6073 8097 8098 11
6074 8097 8099 11
6075 8097 8100 12
6076 8101 8102 11
6077 8101 8103 11
6078 8101 8104 12
6079 8105 8106 11
6080 8105 8107 11
6081 8105 8108 12
6082 8109 8110 11
6083 8109 8111 11
6084 8109 8112 12
6085 8113 8114 11
6086 8113 8115 11
6087 8113 8116 12
6088 8117 8118 11
6089 8117 8119 11
6090 8117 8120 12
6091 8121 8122 11
6092 8121 8123 11
6093 8121 8124 12
6094 8125 8126 11
6095 8125 8127 11
6096 8125 8128 12
6097 8129 8130 11
6098 8129 8131 11
6099 8129 8132 12
6100 8133 8134 11
6101 8133 8135 11
6102 8133 8136 12
6103 8137 8138 11
6104 8137 8139 11
6105 8137 8140 12
6106 8141 8142 11
6107 8141 8143 11
6108 8141 8144 12
6109 8145 8146 11
6110 8145 8147 11
6111 8145 8148 12
6112 8149 8150 11
6113 8149 8151 11
6114 8149 8152 12
6115 8153 8154 11
6116 8153 8155 11
6117 8153 8156 12
6118 8157 8158 11
6119 8157 8159 11
6120 8157 8160 12
6121 8161 8162 11
6122 8161 8163 11
6123 8161 8164 12
6124 8165 8166 11
6125 8165 8167 11
6126 8165 8168 12
6127 8169 8170 11
6128 8169 8171 11
6129 8169 8172 12
6130 8173 8174 11
6131 8173 8175 11
6132 8173 8176 12
6133 8177 8178 11
6134 8177 8179 11
6135 8177 8180 12
6136 8181 8182 11
6137 8181 8183 11
6138 8181 8184 12
6139 8185 8186 11
6140 8185 8187 11
6141 8185 8188 12
6142 8189 8190 11
6143 8189 8191 11
6144 8189 8192 12
6145 8193 8194 11
6146 8193 8195 11
6147 8193 8196 12
6148 8197 8198 11
6149 8197 8199 11
6150 8197 8200 12
6151 8201 8202 11
6152 8201 8203 11
6153 8201 8204 12
6154 8205 8206 11
6155 8205 8207 11
6156 8205 8208 12
6157 8209 8210 11
6158 8209 8211 11
6159 8209 8212 12
6160 8213 8214 11
6161 8213 8215 11
6162 8213 8216 12
6163 8217 8218 11
6164 8217 8219 11
6165 8217 8220 12
6166 8221 8222 11
6167 8221 8223 11
6168 8221 8224 12
6169 8225 8226 11
6170 8225 8227 11
6171 8225 8228 12
6172 8229 8230 11
6173 8229 8231 11
6174 8229 8232 12
6175 8233 8234 11
6176 8233 8235 11
6177 8233 8236 12
6178 8237 8238 11
6179 8237 8239 11
6180 8237 8240 12
6181 8241 8242 11
6182 8241 8243 11
6183 8241 8244 12
6184 8245 8246 11
6185 8245 8247 11
6186 8245 8248 12
6187 8249 8250 11
6188 8249 8251 11
6189 8249 8252 12
6190 8253 8254 11
6191 8253 8255 11
6192 8253 8256 12
6193 8257 8258 11
6194 8257 8259 11
6195 8257 8260 12
6196 8261 8262 11
6197 8261 8263 11
6198 8261 8264 12
6199 8265 8266 11
6200 8265 8267 11
6201 8265 8268 12
6202 8269 8270 11
6203 8269 8271 11
6204 8269 8272 12
6205 8273 8274 11
6206 8273 8275 11
6207 8273 8276 12
6208 8277 8278 11
6209 8277 8279 11
6210 8277 8280 12
6211 8281 8282 11
6212 8281 8283 11
6213 8281 8284 12
6214 8285 8286 11
6215 8285 8287 11
6216 8285 8288 12
6217 8289 8290 11
6218 8289 8291 11
6219 8289 8292 12
6220 8293 8294 11
6221 8293 8295 11
6222 8293 8296 12
6223 8297 8298 11
6224 8297 8299 11
6225 8297 8300 12
6226 8301 8302 11
6227 8301 8303 11
6228 8301 8304 12
6229 8305 8306 11
6230 8305 8307 11
6231 8305 8308 12
6232 8309 8310 11
6233 8309 8311 11
6234 8309 8312 12
6235 8313 8314 11
6236 8313 8315 11
6237 8313 8316 12
6238 8317 8318 11
6239 8317 8319 11
6240 8317 8320 12
6241 8321 8322 11
6242 8321 8323 11
6243 8321 8324 12
6244 8325 8326 11
6245 8325 8327 11
6246 8325 8328 12
6247 8329 8330 11
6248 8329 8331 11
6249 8329 8332 12
6250 8333 8334 11
6251 8333 8335 11
6252 8333 8336 12
6253 8337 8338 11
6254 8337 8339 11
6255 8337 8340 12
6256 8341 8342 11
6257 8341 8343 11
6258 8341 8344 12
6259 8345 8346 11
6260 8345 8347 11
6261 8345 8348 12
6262 8349 8350 11
6263 8349 8351 11
6264 8349 8352 12
6265 8353 8354 11
6266 8353 8355 11
6267 8353 8356 12
6268 8357 8358 11
6269 8357 8359 11
6270 8357 8360 12
6271 8361 8362 11
6272 8361 8363 11
6273 8361 8364 12
6274 8365 8366 11
6275 8365 8367 11
6276 8365 8368 12
6277 8369 8370 11
6278 8369 8371 11
6279 8369 8372 12
6280 8373 8374 11
6281 8373 8375 11
6282 8373 8376 12
6283 8377 8378 11
6284 8377 8379 11
6285 8377 8380 12
6286 8381 8382 11
6287 8381 8383 11
6288 8381 8384 12
6289 8385 8386 11
6290 8385 8387 11
6291 8385 8388 12
6292 8389 8390 11
6293 8389 8391 11
6294 8389 8392 12
6295 8393 8394 11
6296 8393 8395 11
6297 8393 8396 12
6298 8397 8398 11
6299 8397 8399 11
6300 8397 8400 12
6301 8401 8402 11
6302 8401 8403 11
6303 8401 8404 12
6304 8405 8406 11
6305 8405 8407 11
6306 8405 8408 12
6307 8409 8410 11
6308 8409 8411 11
6309 8409 8412 12
6310 8413 8414 11
6311 8413 8415 11
6312 8413 8416 12
6313 8417 8418 11
6314 8417 8419 11
6315 8417 8420 12
6316 8421 8422 11
6317 8421 8423 11
6318 8421 8424 12
6319 8425 8426 11
6320 8425 8427 11
6321 8425 8428 12
6322 8429 8430 11
6323 8429 8431 11
6324 8429 8432 12
6325 8433 8434 11
6326 8433 8435 11
6327 8433 8436 12
6328 8437 8438 11
6329 8437 8439 11
6330 8437 8440 12
6331 8441 8442 11
6332 8441 8443 11
6333 8441 8444 12
6334 8445 8446 11
6335 8445 8447 11
6336 8445 8448 12
6337 8449 8450 11
6338 8449 8451 11
6339 8449 8452 12
6340 8453 8454 11
6341 8453 8455 11
6342 8453 8456 12
6343 8457 8458 11
6344 8457 8459 11
6345 8457 8460 12
6346 8461 8462 11
6347 8461 8463 11
6348 8461 8464 12
6349 8465 8466 11
6350 8465 8467 11
6351 8465 8468 12
6352 8469 8470 11
6353 8469 8471 11
6354 8469 8472 12
6355 8473 8474 11
6356 8473 8475 11
6357 8473 8476 12
6358 8477 8478 11
6359 8477 8479 11
6360 8477 8480 12
6361 8481 8482 11
6362 8481 8483 11
6363 8481 8484 12
6364 8485 8486 11
6365 8485 8487 11
6366 8485 8488 12
6367 8489 8490 11
6368 8489 8491 11
6369 8489 8492 12
6370 8493 8494 11
6371 8493 8495 11
6372 8493 8496 12
6373 8497 8498 11
6374 8497 8499 11
6375 8497 8500 12
6376 8501 8502 11
6377 8501 8503 11
6378 8501 8504 12
6379 8505 8506 11
6380 8505 8507 11
6381 8505 8508 12
6382 8509 8510 11
6383 8509 8511 11
6384 8509 8512 12
6385 8513 8514 11
6386 8513 8515 11
6387 8513 8516 12
6388 8517 8518 11
6389 8517 8519 11
6390 8517 8520 12
6391 8521 8522 11
6392 8521 8523 11
6393 8521 8524 12
6394 8525 8526 11
6395 8525 8527 11
6396 8525 8528 12
6397 8529 8530 11
6398 8529 8531 11
6399 8529 8532 12
6400 8533 8534 11
6401 8533 8535 11
6402 8533 8536 12
6403 8537 8538 11
6404 8537 8539 11
6405 8537 8540 12
6406 8541 8542 11
6407 8541 8543 11
6408 8541 8544 12
6409 8545 8546 11
6410 8545 8547 11
6411 8545 8548 12
6412 8549 8550 11
6413 8549 8551 11
6414 8549 8552 12
6415 8553 8554 11
6416 8553 8555 11
6417 8553 8556 12
6418 8557 8558 11
6419 8557 8559 11
6420 8557 8560 12
6421 8561 8562 11
6422 8561 8563 11
6423 8561 8564 12
6424 8565 8566 11
6425 8565 8567 11
6426 8565 8568 12
6427 8569 8570 11
6428 8569 8571 11
6429 8569 8572 12
6430 8573 8574 11
6431 8573 8575 11
6432 8573 8576 12
6433 8577 8578 11
6434 8577 8579 11
6435 8577 8580 12
6436 8581 8582 11
6437 8581 8583 11
6438 8581 8584 12
6439 8585 8586 11
6440 8585 8587 11
6441 8585 8588 12
6442 8589 8590 11
6443 8589 8591 11
6444 8589 8592 12
6445 8593 8594 11
6446 8593 8595 11
6447 8593 8596 12
6448 8597 8598 11
6449 8597 8599 11
6450 8597 8600 12
6451 8601 8602 11
6452 8601 8603 11
6453 8601 8604 12
6454 8605 8606 11
6455 8605 8607 11
6456 8605 8608 12
6457 8609 8610 11
6458 8609 8611 11
6459 8609 8612 12
6460 8613 8614 11
6461 8613 8615 11
6462 8613 8616 12
6463 8617 8618 11
6464 8617 8619 11
6465 8617 8620 12
6466 8621 8622 11
6467 8621 8623 11
6468 8621 8624 12
6469 8625 8626 11
6470 8625 8627 11
6471 8625 8628 12
6472 8629 8630 11
6473 8629 8631 11
6474 8629 8632 12
6475 8633 8634 11
6476 8633 8635 11
6477 8633 8636 12
6478 8637 8638 11
6479 8637 8639 11
6480 8637 8640 12
6481 8641 8642 11
6482 8641 8643 11
6483 8641 8644 12
6484 8645 8646 11
6485 8645 8647 11
6486 8645 8648 12
6487 8649 8650 11
6488 8649 8651 11
6489 8649 8652 12
6490 8653 8654 11
6491 8653 8655 11
6492 8653 8656 12
6493 8657 8658 11
6494 8657 8659 11
6495 8657 8660 12
6496 8661 8662 11
6497 8661 8663 11
6498 8661 8664 12
6499 8665 8666 11
6500 8665 8667 11
6501 8665 8668 12
6502 8669 8670 11
6503 8669 8671 11
6504 8669 8672 12
6505 8673 8674 11
6506 8673 8675 11
6507 8673 8676 12
6508 8677 8678 11
6509 8677 8679 11
6510 8677 8680 12
6511 8681 8682 11
6512 8681 8683 11
6513 8681 8684 12
6514 8685 8686 11
6515 8685 8687 11
6516 8685 8688 12
6517 8689 8690 11
6518 8689 8691 11
6519 8689 8692 12
6520 8693 8694 11
6521 8693 8695 11
6522 8693 8696 12
6523 8697 8698 11
6524 8697 8699 11
6525 8697 8700 12
6526 8701 8702 11
6527 8701 8703 11
6528 8701 8704 12
6529 8705 8706 11
6530 8705 8707 11
6531 8705 8708 12
6532 8709 8710 11
6533 8709 8711 11
6534 8709 8712 12
6535 8713 8714 11
6536 8713 8715 11
6537 8713 8716 12
6538 8717 8718 11
6539 8717 8719 11
6540 8717 8720 12
6541 8721 8722 11
6542 8721 8723 11
6543 8721 8724 12
6544 8725 8726 11
6545 8725 8727 11
6546 8725 8728 12
6547 8729 8730 11
6548 8729 8731 11
6549 8729 8732 12
6550 8733 8734 11
6551 8733 8735 11
6552 8733 8736 12
6553 8737 8738 11
6554 8737 8739 11
6555 8737 8740 12
6556 8741 8742 11
6557 8741 8743 11
6558 8741 8744 12
6559 8745 8746 11
6560 8745 8747 11
6561 8745 8748 12
6562 8749 8750 11
6563 8749 8751 11
6564 8749 8752 12
6565 8753 8754 11
6566 8753 8755 11
6567 8753 8756 12
6568 8757 8758 11
6569 8757 8759 11
6570 8757 8760 12
6571 8761 8762 11
6572 8761 8763 11
6573 8761 8764 12
6574 8765 8766 11
6575 8765 8767 11
6576 8765 8768 12
6577 8769 8770 11
6578 8769 8771 11
6579 8769 8772 12
6580 8773 8774 11
6581 8773 8775 11
6582 8773 8776 12
6583 8777 8778 11
6584 8777 8779 11
6585 8777 8780 12
6586 8781 8782 11
6587 8781 8783 11
6588 8781 8784 12
6589 8785 8786 11
6590 8785 8787 11
6591 8785 8788 12
6592 8789 8790 11
6593 8789 8791 11
6594 8789 8792 12
6595 8793 8794 11
6596 8793 8795 11
6597 8793 8796 12
6598 8797 8798 11
6599 8797 8799 11
6600 8797 8800 12
6601 8801 8802 11
6602 8801 8803 11
6603 8801 8804 12
6604 8805 8806 11
6605 8805 8807 11
6606 8805 8808 12
6607 8809 8810 11
6608 8809 8811 11
6609 8809 8812 12
6610 8813 8814 11
6611 8813 8815 11
6612 8813 8816 12
6613 8817 8818 11
6614 8817 8819 11
6615 8817 8820 12
6616 8821 8822 11
6617 8821 8823 11
6618 8821 8824 12
6619 8825 8826 11
6620 8825 8827 11
6621 8825 8828 12
6622 8829 8830 11
6623 8829 8831 11
6624 8829 8832 12
6625 8833 8834 11
6626 8833 8835 11
6627 8833 8836 12
6628 8837 8838 11
6629 8837 8839 11
6630 8837 8840 12
6631 8841 8842 11
6632 8841 8843 11
6633 8841 8844 12
6634 8845 8846 11
6635 8845 8847 11
6636 8845 8848 12
6637 8849 8850 11
6638 8849 8851 11
6639 8849 8852 12
6640 8853 8854 11
6641 8853 8855 11
6642 8853 8856 12
6643 8857 8858 11
6644 8857 8859 11
6645 8857 8860 12
6646 8861 8862 11
6647 8861 8863 11
6648 8861 8864 12
6649 8865 8866 11
6650 8865 8867 11
6651 8865 8868 12
6652 8869 8870 11
6653 8869 8871 11
6654 8869 8872 12
6655 8873 8874 11
6656 8873 8875 11
6657 8873 8876 12
6658 8877 8878 11
6659 8877 8879 11
6660 8877 8880 12
6661 8881 8882 11
6662 8881 8883 11
6663 8881 8884 12
6664 8885 8886 11
6665 8885 8887 11
6666 8885 8888 12
6667 8889 8890 11
6668 8889 8891 11
6669 8889 8892 12
6670 8893 8894 11
6671 8893 8895 11
6672 8893 8896 12
6673 8897 8898 11
6674 8897 8899 11
6675 8897 8900 12
6676 8901 8902 11
6677 8901 8903 11
6678 8901 8904 12
6679 8905 8906 11
6680 8905 8907 11
6681 8905 8908 12
6682 8909 8910 11
6683 8909 8911 11
6684 8909 8912 12
6685 8913 8914 11
6686 8913 8915 11
6687 8913 8916 12
6688 8917 8918 11
6689 8917 8919 11
6690 8917 8920 12
6691 8921 8922 11
6692 8921 8923 11
6693 8921 8924 12
6694 8925 8926 11
6695 8925 8927 11
6696 8925 8928 12
6697 8929 8930 11
6698 8929 8931 11
6699 8929 8932 12
6700 8933 8934 11
6701 8933 8935 11
6702 8933 8936 12
6703 8937 8938 11
6704 8937 8939 11
6705 8937 8940 12
6706 8941 8942 11
6707 8941 8943 11
6708 8941 8944 12
6709 8945 8946 11
6710 8945 8947 11
6711 8945 8948 12
6712 8949 8950 11
6713 8949 8951 11
6714 8949 8952 12
6715 8953 8954 11
6716 8953 8955 11
6717 8953 8956 12
6718 8957 8958 11
6719 8957 8959 11
6720 8957 8960 12
6721 8961 8962 11
6722 8961 8963 11
6723 8961 8964 12
6724 8965 8966 11
6725 8965 8967 11
6726 8965 8968 12
6727 8969 8970 11
6728 8969 8971 11
6729 8969 8972 12
6730 8973 8974 11
6731 8973 8975 11
6732 8973 8976 12
6733 8977 8978 11
6734 8977 8979 11
6735 8977 8980 12
6736 8981 8982 11
6737 8981 8983 11
6738 8981 8984 12
6739 8985 8986 11
6740 8985 8987 11
6741 8985 8988 12
6742 8989 8990 11
6743 8989 8991 11
6744 8989 8992 12
6745 8993 8994 11
6746 8993 8995 11
6747 8993 8996 12
6748 8997 8998 11
6749 8997 8999 11
6750 8997 9000 12
6751 9001 9002 11
6752 9001 9003 11
6753 9001 9004 12
6754 9005 9006 11
6755 9005 9007 11
6756 9005 9008 12
6757 9009 9010 11
6758 9009 9011 11
6759 9009 9012 12
6760 9013 9014 11
6761 9013 9015 11
6762 9013 9016 12
6763 9017 9018 11
6764 9017 9019 11
6765 9017 9020 12
6766 9021 9022 11
6767 9021 9023 11
6768 9021 9024 12
6769 9025 9026 11
6770 9025 9027 11
6771 9025 9028 12
6772 9029 9030 11
6773 9029 9031 11
6774 9029 9032 12
6775 9033 9034 11
6776 9033 9035 11
6777 9033 9036 12
6778 9037 9038 11
6779 9037 9039 11
6780 9037 9040 12
6781 9041 9042 11
6782 9041 9043 11
6783 9041 9044 12
6784 9045 9046 11
6785 9045 9047 11
6786 9045 9048 12
6787 9049 9050 11
6788 9049 9051 11
6789 9049 9052 12
6790 9053 9054 11
6791 9053 9055 11
6792 9053 9056 12
6793 9057 9058 11
6794 9057 9059 11
6795 9057 9060 12
6796 9061 9062 11
6797 9061 9063 11
6798 9061 9064 12
6799 9065 9066 11
6800 9065 9067 11
6801 9065 9068 12
6802 9069 9070 11
6803 9069 9071 11
6804 9069 9072 12
6805 9073 9074 11
6806 9073 9075 11
6807 9073 9076 12
6808 9077 9078 11
6809 9077 9079 11
6810 9077 9080 12
6811 9081 9082 11
6812 9081 9083 11
6813 9081 9084 12
6814 9085 9086 11
6815 9085 9087 11
6816 9085 9088 12
6817 9089 9090 11
6818 9089 9091 11
6819 9089 9092 12
6820 9093 9094 11
6821 9093 9095 11
6822 9093 9096 12
6823 9097 9098 11
6824 9097 9099 11
6825 9097 9100 12
6826 9101 9102 11
6827 9101 9103 11
6828 9101 9104 12
6829 9105 9106 11
6830 9105 9107 11
6831 9105 9108 12
6832 9109 9110 11
6833 9109 9111 11
6834 9109 9112 12
6835 9113 9114 11
6836 9113 9115 11
6837 9113 9116 12
6838 9117 9118 11
6839 9117 9119 11
6840 9117 9120 12
6841 9121 9122 11
6842 9121 9123 11
6843 9121 9124 12
6844 9125 9126 11
6845 9125 9127 11
6846 9125 9128 12
6847 9129 9130 11
6848 9129 9131 11
6849 9129 9132 12
6850 9133 9134 11
6851 9133 9135 11
6852 9133 9136 12
6853 9137 9138 11
6854 9137 9139 11
6855 9137 9140 12
6856 9141 9142 11
6857 9141 9143 11
6858 9141 9144 12
6859 9145 9146 11
6860 9145 9147 11
6861 9145 9148 12
6862 9149 9150 11
6863 9149 9151 11
6864 9149 9152 12
6865 9153 9154 11
6866 9153 9155 11
6867 9153 9156 12
6868 9157 9158 11
6869 9157 9159 11
6870 9157 9160 12
6871 9161 9162 11
6872 9161 9163 11
6873 9161 9164 12
6874 9165 9166 11
6875 9165 9167 11
6876 9165 9168 12
6877 9169 9170 11
6878 9169 9171 11
6879 9169 9172 12
6880 9173 9174 11
6881 9173 9175 11
6882 9173 9176 12
6883 9177 9178 11
6884 9177 9179 11
6885 9177 9180 12
6886 9181 9182 11
6887 9181 9183 11
6888 9181 9184 12
6889 9185 9186 11
6890 9185 9187 11
6891 9185 9188 12
6892 9189 9190 11
6893 9189 9191 11
6894 9189 9192 12
6895 9193 9194 11
6896 9193 9195 11
6897 9193 9196 12
6898 9197 9198 11
6899 9197 9199 11
6900 9197 9200 12
6901 9201 9202 11
6902 9201 9203 11
6903 9201 9204 12
6904 9205 9206 11
6905 9205 9207 11
6906 9205 9208 12
6907 9209 9210 11
6908 9209 9211 11
6909 9209 9212 12
6910 9213 9214 11
6911 9213 9215 11
6912 9213 9216 12
6913 9217 9218 11
6914 9217 9219 11
6915 9217 9220 12
6916 9221 9222 11
6917 9221 9223 11
6918 9221 9224 12
6919 9225 9226 11
6920 9225 9227 11
6921 9225 9228 12
6922 9229 9230 11
6923 9229 9231 11
6924 9229 9232 12
6925 9233 9234 11
6926 9233 9235 11
6927 9233 9236 12
6928 9237 9238 11
6929 9237 9239 11
6930 9237 9240 12
6931 9241 9242 11
6932 9241 9243 11
6933 9241 9244 12
6934 9245 9246 11
6935 9245 9247 11
6936 9245 9248 12
6937 9249 9250 11
6938 9249 9251 11
6939 9249 9252 12
6940 9253 9254 11
6941 9253 9255 11
6942 9253 9256 12
6943 9257 9258 11
6944 9257 9259 11
6945 9257 9260 12
6946 9261 9262 11
6947 9261 9263 11
6948 9261 9264 12
6949 9265 9266 11
6950 9265 9267 11
6951 9265 9268 12
6952 9269 9270 11
6953 9269 9271 11
6954 9269 9272 12
6955 9273 9274 11
6956 9273 9275 11
6957 9273 9276 12
6958 9277 9278 11
6959 9277 9279 11
6960 9277 9280 12
6961 9281 9282 11
6962 9281 9283 11
6963 9281 9284 12
6964 9285 9286 11
6965 9285 9287 11
6966 9285 9288 12
6967 9289 9290 11
6968 9289 9291 11
6969 9289 9292 12
6970 9293 9294 11
6971 9293 9295 11
6972 9293 9296 12
6973 9297 9298 11
6974 9297 9299 11
6975 9297 9300 12
6976 9301 9302 11
6977 9301 9303 11
6978 9301 9304 12
6979 9305 9306 11
6980 9305 9307 11
6981 9305 9308 12
6982 9309 9310 11
6983 9309 9311 11
6984 9309 9312 12
6985 9313 9314 11
6986 9313 9315 11
6987 9313 9316 12
6988 9317 9318 11
6989 9317 9319 11
6990 9317 9320 12
6991 9321 9322 11
6992 9321 9323 11
6993 9321 9324 12
6994 9325 9326 11
6995 9325 9327 11
6996 9325 9328 12
6997 9329 9330 11
6998 9329 9331 11
6999 9329 9332 12
7000 9333 9334 11
7001 9333 9335 11
7002 9333 9336 12
7003 9337 9338 11
7004 9337 9339 11
7005 9337 9340 12
7006 9341 9342 11
7007 9341 9343 11
7008 9341 9344 12
7009 9345 9346 11
7010 9345 9347 11
7011 9345 9348 12
7012 9349 9350 11
7013 9349 9351 11
7014 9349 9352 12
7015 9353 9354 11
7016 9353 9355 11
7017 9353 9356 12
7018 9357 9358 11
7019 9357 9359 11
7020 9357 9360 12
7021 9361 9362 11
7022 9361 9363 11
7023 9361 9364 12
7024 9365 9366 11
7025 9365 9367 11
7026 9365 9368 12
7027 9369 9370 11
7028 9369 9371 11
7029 9369 9372 12
7030 9373 9374 11
7031 9373 9375 11
7032 9373 9376 12
7033 9377 9378 11
7034 9377 9379 11
7035 9377 9380 12
7036 9381 9382 11
7037 9381 9383 11
7038 9381 9384 12
7039 9385 9386 11
7040 9385 9387 11
7041 9385 9388 12
7042 9389 9390 11
7043 9389 9391 11
7044 9389 9392 12
7045 9393 9394 11
7046 9393 9395 11
7047 9393 9396 12
7048 9397 9398 11
7049 9397 9399 11
7050 9397 9400 12
7051 9401 9402 11
7052 9401 9403 11
7053 9401 9404 12
7054 9405 9406 11
7055 9405 9407 11
7056 9405 9408 12
7057 9409 9410 11
7058 9409 9411 11
7059 9409 9412 12
7060 9413 9414 11
7061 9413 9415 11
7062 9413 9416 12
7063 9417 9418 11
7064 9417 9419 11
7065 9417 9420 12
7066 9421 9422 11
7067 9421 9423 11
7068 9421 9424 12
7069 9425 9426 11
7070 9425 9427 11
7071 9425 9428 12
7072 9429 9430 11
7073 9429 9431 11
7074 9429 9432 12
7075 9433 9434 11
7076 9433 9435 11
7077 9433 9436 12
7078 9437 9438 11
7079 9437 9439 11
7080 9437 9440 12
7081 9441 9442 11
7082 9441 9443 11
7083 9441 9444 12
7084 9445 9446 11
7085 9445 9447 11
7086 9445 9448 12
7087 9449 9450 11
7088 9449 9451 11
7089 9449 9452 12
7090 9453 9454 11
7091 9453 9455 11
7092 9453 9456 12
7093 9457 9458 11
7094 9457 9459 11
7095 9457 9460 12
7096 9461 9462 11
7097 9461 9463 11
7098 9461 9464 12
7099 9465 9466 11
7100 9465 9467 11
7101 9465 9468 12
7102 9469 9470 11
7103 9469 9471 11
7104 9469 9472 12
7105 9473 9474 11
7106 9473 9475 11
7107 9473 9476 12
7108 9477 9478 11
7109 9477 9479 11
7110 9477 9480 12
7111 9481 9482 11
7112 9481 9483 11
7113 9481 9484 12
7114 9485 9486 11
7115 9485 9487 11
7116 9485 9488 12
7117 9489 9490 11
7118 9489 9491 11
7119 9489 9492 12
7120 9493 9494 11
7121 9493 9495 11
7122 9493 9496 12
7123 9497 9498 11
7124 9497 9499 11
7125 9497 9500 12
7126 9501 9502 11
7127 9501 9503 11
7128 9501 9504 12
7129 9505 9506 11
7130 9505 9507 11
7131 9505 9508 12
7132 9509 9510 11
7133 9509 9511 11
7134 9509 9512 12
7135 9513 9514 11
7136 9513 9515 11
7137 9513 9516 12
7138 9517 9518 11
7139 9517 9519 11
7140 9517 9520 12
7141 9521 9522 11
7142 9521 9523 11
7143 9521 9524 12
7144 9525 9526 11
7145 9525 9527 11
7146 9525 9528 12
7147 9529 9530 11
7148 9529 9531 11
7149 9529 9532 12
7150 9533 9534 11
7151 9533 9535 11
7152 9533 9536 12
7153 9537 9538 11
7154 9537 9539 11
7155 9537 9540 12
7156 9541 9542 11
7157 9541 9543 11
7158 9541 9544 12
7159 9545 9546 11
7160 9545 9547 11
7161 9545 9548 12
7162 9549 9550 11
7163 9549 9551 11
7164 9549 9552 12
7165 9553 9554 11
7166 9553 9555 11
7167 9553 9556 12
7168 9557 9558 11
7169 9557 9559 11
7170 9557 9560 12
7171 9561 9562 11
7172 9561 9563 11
7173 9561 9564 12
7174 9565 9566 11
7175 9565 9567 11
7176 9565 9568 12
7177 9569 9570 11
7178 9569 9571 11
7179 9569 9572 12
7180 9573 9574 11
7181 9573 9575 11
7182 9573 9576 12
7183 9577 9578 11
7184 9577 9579 11
7185 9577 9580 12
7186 9581 9582 11
7187 9581 9583 11
7188 9581 9584 12
7189 9585 9586 11
7190 9585 9587 11
7191 9585 9588 12
7192 9589 9590 11
7193 9589 9591 11
7194 9589 9592 12
7195 9593 9594 11
7196 9593 9595 11
7197 9593 9596 12
7198 9597 9598 11
7199 9597 9599 11
7200 9597 9600 12
7201 9601 9602 11
7202 9601 9603 11
7203 9601 9604 12
7204 9605 9606 11
7205 9605 9607 11
7206 9605 9608 12
7207 9609 9610 11
7208 9609 9611 11
7209 9609 9612 12
7210 9613 9614 11
7211 9613 9615 11
7212 9613 9616 12
7213 9617 9618 11
7214 9617 9619 11
7215 9617 9620 12
7216 9621 9622 11
7217 9621 9623 11
7218 9621 9624 12
7219 9625 9626 11
7220 9625 9627 11
7221 9625 9628 12
7222 9629 9630 11
7223 9629 9631 11
7224 9629 9632 12
7225 9633 9634 11
7226 9633 9635 11
7227 9633 9636 12
7228 9637 9638 11
7229 9637 9639 11
7230 9637 9640 12
7231 9641 9642 11
7232 9641 9643 11
7233 9641 9644 12
7234 9645 9646 11
7235 9645 9647 11
7236 9645 9648 12
7237 9649 9650 11
7238 9649 9651 11
7239 9649 9652 12
7240 9653 9654 11
7241 9653 9655 11
7242 9653 9656 12
7243 9657 9658 11
7244 9657 9659 11
7245 9657 9660 12
7246 9661 9662 11
7247 9661 9663 11
7248 9661 9664 12
7249 9665 9666 11
7250 9665 9667 11
7251 9665 9668 12
7252 9669 9670 11
7253 9669 9671 11
7254 9669 9672 12
7255 9673 9674 11
7256 9673 9675 11
7257 9673 9676 12
7258 9677 9678 11
7259 9677 9679 11
7260 9677 9680 12
7261 9681 9682 11
7262 9681 9683 11
7263 9681 9684 12
7264 9685 9686 11
7265 9685 9687 11
7266 9685 9688 12
7267 9689 9690 11
7268 9689 9691 11
7269 9689 9692 12
7270 9693 9694 11
7271 9693 9695 11
7272 9693 9696 12
7273 9697 9698 11
7274 9697 9699 11
7275 9697 9700 12
7276 9701 9702 11
7277 9701 9703 11
7278 9701 9704 12
7279 9705 9706 11
7280 9705 9707 11
7281 9705 9708 12
7282 9709 9710 11
7283 9709 9711 11
7284 9709 9712 12
7285 9713 9714 11
7286 9713 9715 11
7287 9713 9716 12
7288 9717 9718 11
7289 9717 9719 11
7290 9717 9720 12
7291 9721 9722 11
7292 9721 9723 11
7293 9721 9724 12
7294 9725 9726 11
7295 9725 9727 11
7296 9725 9728 12
7297 9729 9730 11
7298 9729 9731 11
7299 9729 9732 12
7300 9733 9734 11
7301 9733 9735 11
7302 9733 9736 12
7303 9737 9738 11
7304 9737 9739 11
7305 9737 9740 12
7306 9741 9742 11
7307 9741 9743 11
7308 9741 9744 12
7309 9745 9746 11
7310 9745 9747 11
7311 9745 9748 12
7312 9749 9750 11
7313 9749 9751 11
7314 9749 9752 12
7315 9753 9754 11
7316 9753 9755 11
7317 9753 9756 12
7318 9757 9758 11
7319 9757 9759 11
7320 9757 9760 12
7321 9761 9762 11
7322 9761 9763 11
7323 9761 9764 12
7324 9765 9766 11
7325 9765 9767 11
7326 9765 9768 12
7327 9769 9770 11
7328 9769 9771 11
7329 9769 9772 12
7330 9773 9774 11
7331 9773 9775 11
7332 9773 9776 12
7333 9777 9778 11
7334 9777 9779 11
7335 9777 9780 12
7336 9781 9782 11
7337 9781 9783 11
7338 9781 9784 12
7339 9785 9786 11
7340 9785 9787 11
7341 9785 9788 12
7342 9789 9790 11
7343 9789 9791 11
7344 9789 9792 12
7345 9793 9794 11
7346 9793 9795 11
7347 9793 9796 12
7348 9797 9798 11
7349 9797 9799 11
7350 9797 9800 12
7351 9801 9802 11
7352 9801 9803 11
7353 9801 9804 12
7354 9805 9806 11
7355 9805 9807 11
7356 9805 9808 12
7357 9809 9810 11
7358 9809 9811 11
7359 9809 9812 12
7360 9813 9814 11
7361 9813 9815 11
7362 9813 9816 12
7363 9817 9818 11
7364 9817 9819 11
7365 9817 9820 12
7366 9821 9822 11
7367 9821 9823 11
7368 9821 9824 12
7369 9825 9826 11
7370 9825 9827 11
7371 9825 9828 12
7372 9829 9830 11
7373 9829 9831 11
7374 9829 9832 12
7375 9833 9834 11
7376 9833 9835 11
7377 9833 9836 12
7378 9837 9838 11
7379 9837 9839 11
7380 9837 9840 12
7381 9841 9842 11
7382 9841 9843 11
7383 9841 9844 12
7384 9845 9846 11
7385 9845 9847 11
7386 9845 9848 12
7387 9849 9850 11
7388 9849 9851 11
7389 9849 9852 12
7390 9853 9854 11
7391 9853 9855 11
7392 9853 9856 12
7393 9857 9858 11
7394 9857 9859 11
7395 9857 9860 12
7396 9861 9862 11
7397 9861 9863 11
7398 9861 9864 12
7399 9865 9866 11
7400 9865 9867 11
7401 9865 9868 12
7402 9869 9870 11
7403 9869 9871 11
7404 9869 9872 12
7405 9873 9874 11
7406 9873 9875 11
7407 9873 9876 12
7408 9877 9878 11
7409 9877 9879 11
7410 9877 9880 12
7411 9881 9882 11
7412 9881 9883 11
7413 9881 9884 12
7414 9885 9886 11
7415 9885 9887 11
7416 9885 9888 12
7417 9889 9890 11
7418 9889 9891 11
7419 9889 9892 12
7420 9893 9894 11
7421 9893 9895 11
7422 9893 9896 12
7423 9897 9898 11
7424 9897 9899 11
7425 9897 9900 12
7426 9901 9902 11
7427 9901 9903 11
7428 9901 9904 12
7429 9905 9906 11
7430 9905 9907 11
7431 9905 9908 12
7432 9909 9910 11
7433 9909 9911 11
7434 9909 9912 12
7435 9913 9914 11
7436 9913 9915 11
7437 9913 9916 12
7438 9917 9918 11
7439 9917 9919 11
7440 9917 9920 12
7441 9921 9922 11
7442 9921 9923 11
7443 9921 9924 12
7444 9925 9926 11
7445 9925 9927 11
7446 9925 9928 12
7447 9929 9930 11
7448 9929 9931 11
7449 9929 9932 12
7450 9933 9934 11
7451 9933 9935 11
7452 9933 9936 12
7453 9937 9938 11
7454 9937 9939 11
7455 9937 9940 12
7456 9941 9942 11
7457 9941 9943 11
7458 9941 9944 12
7459 9945 9946 11
7460 9945 9947 11
7461 9945 9948 12
7462 9949 9950 11
7463 9949 9951 11
7464 9949 9952 12
7465 9953 9954 11
7466 9953 9955 11
7467 9953 9956 12
7468 9957 9958 11
7469 9957 9959 11
7470 9957 9960 12
7471 9961 9962 11
7472 9961 9963 11
7473 9961 9964 12
7474 9965 9966 11
7475 9965 9967 11
7476 9965 9968 12
7477 9969 9970 11
7478 9969 9971 11
7479 9969 9972 12
7480 9973 9974 11
7481 9973 9975 11
7482 9973 9976 12
7483 9977 9978 11
7484 9977 9979 11
7485 9977 9980 12
7486 9981 9982 11
7487 9981 9983 11
7488 9981 9984 12
7489 9985 9986 11
7490 9985 9987 11
7491 9985 9988 12
7492 9989 9990 11
7493 9989 9991 11
7494 9989 9992 12
7495 9993 9994 11
7496 9993 9995 11
7497 9993 9996 12
7498 9998 9999 11
7499 9998 10000 11
7500 9998 9997 12
7501 10001 10002 11
7502 10001 10003 11
7503 10001 10004 12
7504 10005 10006 11
7505 10005 10007 11
7506 10005 10008 12
7507 10009 10010 11
7508 10009 10011 11
7509 10009 10012 12
7510 10013 10014 11
7511 10013 10015 11
7512 10013 10016 12
7513 10017 10018 11
7514 10017 10019 11
7515 10017 10020 12
7516 10021 10022 11
7517 10021 10023 11
7518 10021 10024 12
7519 10025 10026 11
7520 10025 10027 11
7521 10025 10028 12
7522 10029 10030 11
7523 10029 10031 11
7524 10029 10032 12
7525 10033 10034 11
7526 10033 10035 11
7527 10033 10036 12
7528 10037 10038 11
7529 10037 10039 11
7530 10037 10040 12
7531 10041 10042 11
7532 10041 10043 11
7533 10041 10044 12
7534 10045 10046 11
7535 10045 10047 11
7536 10045 10048 12
7537 10049 10050 11
7538 10049 10051 11
7539 10049 10052 12
7540 10053 10054 11
7541 10053 10055 11
7542 10053 10056 12
7543 10057 10058 11
7544 10057 10059 11
7545 10057 10060 12
7546 10061 10062 11
7547 10061 10063 11
7548 10061 10064 12
7549 10065 10066 11
7550 10065 10067 11
7551 10065 10068 12
7552 10069 10070 11
7553 10069 10071 11
7554 10069 10072 12
7555 10073 10074 11
7556 10073 10075 11
7557 10073 10076 12
7558 10077 10078 11
7559 10077 10079 11
7560 10077 10080 12
7561 10081 10082 11
7562 10081 10083 11
7563 10081 10084 12
7564 10085 10086 11
7565 10085 10087 11
7566 10085 10088 12
7567 10089 10090 11
7568 10089 10091 11
7569 10089 10092 12
7570 10093 10094 11
7571 10093 10095 11
7572 10093 10096 12
7573 10097 10098 11
7574 10097 10099 11
7575 10097 10100 12
7576 10101 10102 11
7577 10101 10103 11
7578 10101 10104 12
7579 10105 10106 11
7580 10105 10107 11
7581 10105 10108 12
7582 10109 10110 11
7583 10109 10111 11
7584 10109 10112 12
7585 10113 10114 11
7586 10113 10115 11
7587 10113 10116 12
7588 10117 10118 11
7589 10117 10119 11
7590 10117 10120 12
7591 10121 10122 11
7592 10121 10123 11
7593 10121 10124 12
7594 10125 10126 11
7595 10125 10127 11
7596 10125 10128 12
7597 10129 10130 11
7598 10129 10131 11
7599 10129 10132 12
7600 10133 10134 11
7601 10133 10135 11
7602 10133 10136 12
7603 10137 10138 11
7604 10137 10139 11
7605 10137 10140 12
7606 10141 10142 11
7607 10141 10143 11
7608 10141 10144 12
7609 10145 10146 11
7610 10145 10147 11
7611 10145 10148 12
7612 10149 10150 11
7613 10149 10151 11
7614 10149 10152 12
7615 10153 10154 11
7616 10153 10155 11
7617 10153 10156 12
7618 10157 10158 11
7619 10157 10159 11
7620 10157 10160 12
7621 10161 10162 11
7622 10161 10163 11
7623 10161 10164 12
7624 10165 10166 11
7625 10165 10167 11
7626 10165 10168 12
7627 10169 10170 11
7628 10169 10171 11
7629 10169 10172 12
7630 10173 10174 11
7631 10173 10175 11
7632 10173 10176 12
7633 10177 10178 11
7634 10177 10179 11
7635 10177 10180 12
7636 10181 10182 11
7637 10181 10183 11
7638 10181 10184 12
7639 10185 10186 11
7640 10185 10187 11
7641 10185 10188 12
7642 10189 10190 11
7643 10189 10191 11
7644 10189 10192 12
7645 10193 10194 11
7646 10193 10195 11
7647 10193 10196 12
7648 10197 10198 11
7649 10197 10199 11
7650 10197 10200 12
7651 10201 10202 11
7652 10201 10203 11
7653 10201 10204 12
7654 10205 10206 11
7655 10205 10207 11
7656 10205 10208 12
7657 10209 10210 11
7658 10209 10211 11
7659 10209 10212 12
7660 10213 10214 11
7661 10213 10215 11
7662 10213 10216 12
7663 10217 10218 11
7664 10217 10219 11
7665 10217 10220 12
7666 10221 10222 11
7667 10221 10223 11
7668 10221 10224 12
7669 10225 10226 11
7670 10225 10227 11
7671 10225 10228 12
7672 10229 10230 11
7673 10229 10231 11
7674 10229 10232 12
7675 10233 10234 11
7676 10233 10235 11
7677 10233 10236 12
7678 10237 10238 11
7679 10237 10239 11
7680 10237 10240 12
7681 10241 10242 11
7682 10241 10243 11
7683 10241 10244 12
7684 10245 10246 11
7685 10245 10247 11
7686 10245 10248 12
7687 10249 10250 11
7688 10249 10251 11
7689 10249 10252 12
7690 10253 10254 11
7691 10253 10255 11
7692 10253 10256 12
7693 10257 10258 11
7694 10257 10259 11
7695 10257 10260 12
7696 10261 10262 11
7697 10261 10263 11
7698 10261 10264 12
7699 10265 10266 11
7700 10265 10267 11
7701 10265 10268 12
7702 10269 10270 11
7703 10269 10271 11
7704 10269 10272 12
7705 10273 10274 11
7706 10273 10275 11
7707 10273 10276 12
7708 10277 10278 11
7709 10277 10279 11
7710 10277 10280 12
7711 10281 10282 11
7712 10281 10283 11
7713 10281 10284 12
7714 10285 10286 11
7715 10285 10287 11
7716 10285 10288 12
7717 10289 10290 11
7718 10289 10291 11
7719 10289 10292 12
7720 10293 10294 11
7721 10293 10295 11
7722 10293 10296 12
7723 10297 10298 11
7724 10297 10299 11
7725 10297 10300 12
7726 10301 10302 11
7727 10301 10303 11
7728 10301 10304 12
7729 10305 10306 11
7730 10305 10307 11
7731 10305 10308 12
7732 10309 10310 11
7733 10309 10311 11
7734 10309 10312 12
7735 10313 10314 11
7736 10313 10315 11
7737 10313 10316 12
7738 10317 10318 11
7739 10317 10319 11
7740 10317 10320 12
7741 10321 10322 11
7742 10321 10323 11
7743 10321 10324 12
7744 10325 10326 11
7745 10325 10327 11
7746 10325 10328 12
7747 10329 10330 11
7748 10329 10331 11
7749 10329 10332 12
7750 10333 10334 11
7751 10333 10335 11
7752 10333 10336 12
7753 10337 10338 11
7754 10337 10339 11
7755 10337 10340 12
7756 10341 10342 11
7757 10341 10343 11
7758 10341 10344 12
7759 10345 10346 11
7760 10345 10347 11
7761 10345 10348 12
7762 10349 10350 11
7763 10349 10351 11
7764 10349 10352 12
7765 10353 10354 11
7766 10353 10355 11
7767 10353 10356 12
7768 10357 10358 11
7769 10357 10359 11
7770 10357 10360 12
7771 10361 10362 11
7772 10361 10363 11
7773 10361 10364 12
7774 10365 10366 11
7775 10365 10367 11
7776 10365 10368 12
7777 10369 10370 11
7778 10369 10371 11
7779 10369 10372 12
7780 10373 10374 11
7781 10373 10375 11
7782 10373 10376 12
7783 10377 10378 11
7784 10377 10379 11
7785 10377 10380 12
7786 10381 10382 11
7787 10381 10383 11
7788 10381 10384 12
7789 10385 10386 11
7790 10385 10387 11
7791 10385 10388 12
7792 10389 10390 11
7793 10389 10391 11
7794 10389 10392 12
7795 10393 10394 11
7796 10393 10395 11
7797 10393 10396 12
7798 10397 10398 11
7799 10397 10399 11
7800 10397 10400 12
7801 10401 10402 11
7802 10401 10403 11
7803 10401 10404 12
7804 10405 10406 11
7805 10405 10407 11
7806 10405 10408 12
7807 10409 10410 11
7808 10409 10411 11
7809 10409 10412 12
7810 10413 10414 11
7811 10413 10415 11
7812 10413 10416 12
7813 10417 10418 11
7814 10417 10419 11
7815 10417 10420 12
7816 10421 10422 11
7817 10421 10423 11
7818 10421 10424 12
7819 10425 10426 11
7820 10425 10427 11
7821 10425 10428 12
7822 10429 10430 11
7823 10429 10431 11
7824 10429 10432 12
7825 10433 10434 11
7826 10433 10435 11
7827 10433 10436 12
7828 10437 10438 11
7829 10437 10439 11
7830 10437 10440 12
7831 10441 10442 11
7832 10441 10443 11
7833 10441 10444 12
7834 10445 10446 11
7835 10445 10447 11
7836 10445 10448 12
7837 10449 10450 11
7838 10449 10451 11
7839 10449 10452 12
7840 10453 10454 11
7841 10453 10455 11
7842 10453 10456 12
7843 10457 10458 11
7844 10457 10459 11
7845 10457 10460 12
7846 10461 10462 11
7847 10461 10463 11
7848 10461 10464 12
7849 10465 10466 11
7850 10465 10467 11
7851 10465 10468 12
7852 10469 10470 11
7853 10469 10471 11
7854 10469 10472 12
7855 10473 10474 11
7856 10473 10475 11
7857 10473 10476 12
7858 10477 10478 11
7859 10477 10479 11
7860 10477 10480 12
7861 10481 10482 11
7862 10481 10483 11
7863 10481 10484 12
7864 10485 10486 11
7865 10485 10487 11
7866 10485 10488 12
7867 10489 10490 11
7868 10489 10491 11
7869 10489 10492 12
7870 10493 10494 11
7871 10493 10495 11
7872 10493 10496 12
7873 10497 10498 11
7874 10497 10499 11
7875 10497 10500 12
7876 10501 10502 11
7877 10501 10503 11
7878 10501 10504 12
7879 10505 10506 11
7880 10505 10507 11
7881 10505 10508 12
7882 10509 10510 11
7883 10509 10511 11
7884 10509 10512 12
7885 10513 10514 11
7886 10513 10515 11
7887 10513 10516 12
7888 10517 10518 11
7889 10517 10519 11
7890 10517 10520 12
7891 10521 10522 11
7892 10521 10523 11
7893 10521 10524 12
7894 10525 10526 11
7895 10525 10527 11
7896 10525 10528 12
7897 10529 10530 11
7898 10529 10531 11
7899 10529 10532 12
7900 10533 10534 11
7901 10533 10535 11
7902 10533 10536 12
7903 10537 10538 11
7904 10537 10539 11
7905 10537 10540 12
7906 10541 10542 11
7907 10541 10543 11
7908 10541 10544 12
7909 10545 10546 11
7910 10545 10547 11
7911 10545 10548 12
7912 10549 10550 11
7913 10549 10551 11
7914 10549 10552 12
7915 10553 10554 11
7916 10553 10555 11
7917 10553 10556 12
7918 10557 10558 11
7919 10557 10559 11
7920 10557 10560 12
7921 10561 10562 11
7922 10561 10563 11
7923 10561 10564 12
7924 10565 10566 11
7925 10565 10567 11
7926 10565 10568 12
7927 10569 10570 11
7928 10569 10571 11
7929 10569 10572 12
7930 10573 10574 11
7931 10573 10575 11
7932 10573 10576 12
7933 10577 10578 11
7934 10577 10579 11
7935 10577 10580 12
7936 10581 10582 11
7937 10581 10583 11
7938 10581 10584 12
7939 10585 10586 11
7940 10585 10587 11
7941 10585 10588 12
7942 10589 10590 11
7943 10589 10591 11
7944 10589 10592 12
7945 10593 10594 11
7946 10593 10595 11
7947 10593 10596 12
7948 10597 10598 11
7949 10597 10599 11
7950 10597 10600 12
7951 10601 10602 11
7952 10601 10603 11
7953 10601 10604 12
7954 10605 10606 11
7955 10605 10607 11
7956 10605 10608 12
7957 10609 10610 11
7958 10609 10611 11
7959 10609 10612 12
7960 10613 10614 11
7961 10613 10615 11
7962 10613 10616 12
7963 10617 10618 11
7964 10617 10619 11
7965 10617 10620 12
7966 10621 10622 11
7967 10621 10623 11
7968 10621 10624 12
7969 10625 10626 11
7970 10625 10627 11
7971 10625 10628 12
7972 10629 10630 11
7973 10629 10631 11
7974 10629 10632 12
7975 10633 10634 11
7976 10633 10635 11
7977 10633 10636 12
7978 10637 10638 11
7979 10637 10639 11
7980 10637 10640 12
7981 10641 10642 11
7982 10641 10643 11
7983 10641 10644 12
7984 10645 10646 11
7985 10645 10647 11
7986 10645 10648 12
7987 10649 10650 11
7988 10649 10651 11
7989 10649 10652 12
7990 10653 10654 11
7991 10653 10655 11
7992 10653 10656 12
7993 10657 10658 11
7994 10657 10659 11
7995 10657 10660 12
7996 10661 10662 11
7997 10661 10663 11
7998 10661 10664 12
7999 10665 10666 11
8000 10665 10667 11
8001 10665 10668 12
8002 10669 10670 11
8003 10669 10671 11
8004 10669 10672 12
8005 10673 10674 11
8006 10673 10675 11
8007 10673 10676 12
8008 10677 10678 11
8009 10677 10679 11
8010 10677 10680 12
8011 10681 10682 11
8012 10681 10683 11
8013 10681 10684 12
8014 10685 10686 11
8015 10685 10687 11
8016 10685 10688 12
8017 10689 10690 11
8018 10689 10691 11
8019 10689 10692 12
8020 10693 10694 11
8021 10693 10695 11
8022 10693 10696 12
8023 10697 10698 11
8024 10697 10699 11
8025 10697 10700 12
8026 10701 10702 11
8027 10701 10703 11
8028 10701 10704 12
8029 10705 10706 11
8030 10705 10707 11
8031 10705 10708 12
8032 10709 10710 11
8033 10709 10711 11
8034 10709 10712 12
8035 10713 10714 11
8036 10713 10715 11
8037 10713 10716 12
8038 10717 10718 11
8039 10717 10719 11
8040 10717 10720 12
8041 10721 10722 11
8042 10721 10723 11
8043 10721 10724 12
8044 10725 10726 11
8045 10725 10727 11
8046 10725 10728 12
8047 10729 10730 11
8048 10729 10731 11
8049 10729 10732 12
8050 10733 10734 11
8051 10733 10735 11
8052 10733 10736 12
8053 10737 10738 11
8054 10737 10739 11
8055 10737 10740 12
8056 10741 10742 11
8057 10741 10743 11
8058 10741 10744 12
8059 10745 10746 11
8060 10745 10747 11
8061 10745 10748 12
8062 10749 10750 11
8063 10749 10751 11
8064 10749 10752 12
8065 10753 10754 11
8066 10753 10755 11
8067 10753 10756 12
8068 10757 10758 11
8069 10757 10759 11
8070 10757 10760 12
8071 10761 10762 11
8072 10761 10763 11
8073 10761 10764 12
8074 10765 10766 11
8075 10765 10767 11
8076 10765 10768 12
8077 10769 10770 11
8078 10769 10771 11
8079 10769 10772 12
8080 10773 10774 11
8081 10773 10775 11
8082 10773 10776 12
8083 10777 10778 11
8084 10777 10779 11
8085 10777 10780 12
8086 10781 10782 11
8087 10781 10783 11
8088 10781 10784 12
8089 10785 10786 11
8090 10785 10787 11
8091 10785 10788 12
8092 10789 10790 11
8093 10789 10791 11
8094 10789 10792 12
8095 10793 10794 11
8096 10793 10795 11
8097 10793 10796 12
8098 10797 10798 11
8099 10797 10799 11
8100 10797 10800 12
8101 10801 10802 11
8102 10801 10803 11
8103 10801 10804 12
8104 10805 10806 11
8105 10805 10807 11
8106 10805 10808 12
8107 10809 10810 11
8108 10809 10811 11
8109 10809 10812 12
8110 10813 10814 11
8111 10813 10815 11
8112 10813 10816 12
8113 10817 10818 11
8114 10817 10819 11
8115 10817 10820 12
8116 10821 10822 11
8117 10821 10823 11
8118 10821 10824 12
8119 10825 10826 11
8120 10825 10827 11
8121 10825 10828 12
8122 10829 10830 11
8123 10829 10831 11
8124 10829 10832 12
8125 10833 10834 11
8126 10833 10835 11
8127 10833 10836 12
8128 10837 10838 11
8129 10837 10839 11
8130 10837 10840 12
8131 10841 10842 11
8132 10841 10843 11
8133 10841 10844 12
8134 10845 10846 11
8135 10845 10847 11
8136 10845 10848 12
8137 10849 10850 11
8138 10849 10851 11
8139 10849 10852 12
8140 10853 10854 11
8141 10853 10855 11
8142 10853 10856 12
8143 10857 10858 11
8144 10857 10859 11
8145 10857 10860 12
8146 10861 10862 11
8147 10861 10863 11
8148 10861 10864 12
8149 10865 10866 11
8150 10865 10867 11
8151 10865 10868 12
8152 10869 10870 11
8153 10869 10871 11
8154 10869 10872 12
8155 10873 10874 11
8156 10873 10875 11
8157 10873 10876 12
8158 10877 10878 11
8159 10877 10879 11
8160 10877 10880 12
8161 10881 10882 11
8162 10881 10883 11
8163 10881 10884 12
8164 10885 10886 11
8165 10885 10887 11
8166 10885 10888 12
8167 10889 10890 11
8168 10889 10891 11
8169 10889 10892 12
8170 10893 10894 11
8171 10893 10895 11
8172 10893 10896 12
8173 10897 10898 11
8174 10897 10899 11
8175 10897 10900 12
8176 10901 10902 11
8177 10901 10903 11
8178 10901 10904 12
8179 10905 10906 11
8180 10905 10907 11
8181 10905 10908 12
8182 10909 10910 11
8183 10909 10911 11
8184 10909 10912 12
8185 10913 10914 11
8186 10913 10915 11
8187 10913 10916 12
8188 10917 10918 11
8189 10917 10919 11
8190 10917 10920 12
8191 10921 10922 11
8192 10921 10923 11
8193 10921 10924 12
8194 10925 10926 11
8195 10925 10927 11
8196 10925 10928 12
8197 10929 10930 11
8198 10929 10931 11
8199 10929 10932 12
8200 10933 10934 11
8201 10933 10935 11
8202 10933 10936 12
8203 10937 10938 11
8204 10937 10939 11
8205 10937 10940 12
8206 10941 10942 11
8207 10941 10943 11
8208 10941 10944 12
8209 10945 10946 11
8210 10945 10947 11
8211 10945 10948 12
8212 10949 10950 11
8213 10949 10951 11
8214 10949 10952 12
8215 10953 10954 11
8216 10953 10955 11
8217 10953 10956 12
8218 10957 10958 11
8219 10957 10959 11
8220 10957 10960 12
8221 10961 10962 11
8222 10961 10963 11
8223 10961 10964 12
8224 10965 10966 11
8225 10965 10967 11
8226 10965 10968 12
8227 10969 10970 11
8228 10969 10971 11
8229 10969 10972 12
8230 10973 10974 11
8231 10973 10975 11
8232 10973 10976 12
8233 10977 10978 11
8234 10977 10979 11
8235 10977 10980 12
8236 10981 10982 11
8237 10981 10983 11
8238 10981 10984 12
8239 10985 10986 11
8240 10985 10987 11
8241 10985 10988 12
8242 10989 10990 11
8243 10989 10991 11
8244 10989 10992 12
8245 10993 10994 11
8246 10993 10995 11
8247 10993 10996 12
8248 10997 10998 11
8249 10997 10999 11
8250 10997 11000 12
8251 11001 11002 11
8252 11001 11003 11
8253 11001 11004 12
8254 11005 11006 11
8255 11005 11007 11
8256 11005 11008 12
8257 11009 11010 11
8258 11009 11011 11
8259 11009 11012 12
8260 11013 11014 11
8261 11013 11015 11
8262 11013 11016 12
8263 11017 11018 11
8264 11017 11019 11
8265 11017 11020 12
8266 11021 11022 11
8267 11021 11023 11
8268 11021 11024 12
8269 11025 11026 11
8270 11025 11027 11
8271 11025 11028 12
8272 11029 11030 11
8273 11029 11031 11
8274 11029 11032 12
8275 11033 11034 11
8276 11033 11035 11
8277 11033 11036 12
8278 11037 11038 11
8279 11037 11039 11
8280 11037 11040 12
8281 11041 11042 11
8282 11041 11043 11
8283 11041 11044 12
8284 11045 11046 11
8285 11045 11047 11
8286 11045 11048 12
8287 11049 11050 11
8288 11049 11051 11
8289 11049 11052 12
8290 11053 11054 11
8291 11053 11055 11
8292 11053 11056 12
8293 11057 11058 11
8294 11057 11059 11
8295 11057 11060 12
8296 11061 11062 11
8297 11061 11063 11
8298 11061 11064 12
8299 11065 11066 11
8300 11065 11067 11
8301 11065 11068 12
8302 11069 11070 11
8303 11069 11071 11
8304 11069 11072 12
8305 11073 11074 11
8306 11073 11075 11
8307 11073 11076 12
8308 11077 11078 11
8309 11077 11079 11
8310 11077 11080 12
8311 11081 11082 11
8312 11081 11083 11
8313 11081 11084 12
8314 11085 11086 11
8315 11085 11087 11
8316 11085 11088 12
8317 11089 11090 11
8318 11089 11091 11
8319 11089 11092 12
8320 11093 11094 11
8321 11093 11095 11
8322 11093 11096 12
8323 11097 11098 11
8324 11097 11099 11
8325 11097 11100 12
8326 11101 11102 11
8327 11101 11103 11
8328 11101 11104 12
8329 11105 11106 11
8330 11105 11107 11
8331 11105 11108 12
8332 11109 11110 11
8333 11109 11111 11
8334 11109 11112 12
8335 11113 11114 11
8336 11113 11115 11
8337 11113 11116 12
8338 11117 11118 11
8339 11117 11119 11
8340 11117 11120 12
8341 11121 11122 11
8342 11121 11123 11
8343 11121 11124 12
8344 11125 11126 11
8345 11125 11127 11
8346 11125 11128 12
8347 11129 11130 11
8348 11129 11131 11
8349 11129 11132 12
8350 11133 11134 11
8351 11133 11135 11
8352 11133 11136 12
8353 11137 11138 11
8354 11137 11139 11
8355 11137 11140 12
8356 11141 11142 11
8357 11141 11143 11
8358 11141 11144 12
8359 11145 11146 11
8360 11145 11147 11
8361 11145 11148 12
8362 11149 11150 11
8363 11149 11151 11
8364 11149 11152 12
8365 11153 11154 11
8366 11153 11155 11
8367 11153 11156 12
8368 11157 11158 11
8369 11157 11159 11
8370 11157 11160 12
8371 11161 11162 11
8372 11161 11163 11
8373 11161 11164 12
8374 11165 11166 11
8375 11165 11167 11
8376 11165 11168 12
8377 11169 11170 11
8378 11169 11171 11
8379 11169 11172 12
8380 11173 11174 11
8381 11173 11175 11
8382 11173 11176 12
8383 11177 11178 11
8384 11177 11179 11
8385 11177 11180 12
8386 11181 11182 11
8387 11181 11183 11
8388 11181 11184 12
8389 11185 11186 11
8390 11185 11187 11
8391 11185 11188 12
8392 11189 11190 11
8393 11189 11191 11
8394 11189 11192 12
8395 11193 11194 11
8396 11193 11195 11
8397 11193 11196 12
8398 11197 11198 11
8399 11197 11199 11
8400 11197 11200 12
8401 11201 11202 11
8402 11201 11203 11
8403 11201 11204 12
8404 11205 11206 11
8405 11205 11207 11
8406 11205 11208 12
8407 11209 11210 11
8408 11209 11211 11
8409 11209 11212 12
8410 11213 11214 11
8411 11213 11215 11
8412 11213 11216 12
8413 11217 11218 11
8414 11217 11219 11
8415 11217 11220 12
8416 11221 11222 11
8417 11221 11223 11
8418 11221 11224 12
8419 11225 11226 11
8420 11225 11227 11
8421 11225 11228 12
8422 11229 11230 11
8423 11229 11231 11
8424 11229 11232 12
8425 11233 11234 11
8426 11233 11235 11
8427 11233 11236 12
8428 11237 11238 11
8429 11237 11239 11
8430 11237 11240 12
8431 11241 11242 11
8432 11241 11243 11
8433 11241 11244 12
8434 11245 11246 11
8435 11245 11247 11
8436 11245 11248 12
8437 11249 11250 11
8438 11249 11251 11
8439 11249 11252 12
8440 11253 11254 11
8441 11253 11255 11
8442 11253 11256 12
8443 11257 11258 11
8444 11257 11259 11
8445 11257 11260 12
8446 11261 11262 11
8447 11261 11263 11
8448 11261 11264 12
8449 11265 11266 11
8450 11265 11267 11
8451 11265 11268 12
8452 11269 11270 11
8453 11269 11271 11
8454 11269 11272 12
8455 11273 11274 11
8456 11273 11275 11
8457 11273 11276 12
8458 11277 11278 11
8459 11277 11279 11
8460 11277 11280 12
8461 11281 11282 11
8462 11281 11283 11
8463 11281 11284 12
8464 11285 11286 11
8465 11285 11287 11
8466 11285 11288 12
8467 11289 11290 11
8468 11289 11291 11
8469 11289 11292 12
8470 11293 11294 11
8471 11293 11295 11
8472 11293 11296 12
8473 11297 11298 11
8474 11297 11299 11
8475 11297 11300 12
8476 11301 11302 11
8477 11301 11303 11
8478 11301 11304 12
8479 11305 11306 11
8480 11305 11307 11
8481 11305 11308 12
8482 11309 11310 11
8483 11309 11311 11
8484 11309 11312 12
8485 11313 11314 11
8486 11313 11315 11
8487 11313 11316 12
8488 11317 11318 11
8489 11317 11319 11
8490 11317 11320 12
8491 11321 11322 11
8492 11321 11323 11
8493 11321 11324 12
8494 11325 11326 11
8495 11325 11327 11
8496 11325 11328 12
8497 11329 11330 11
8498 11329 11331 11
8499 11329 11332 12
8500 11333 11334 11
8501 11333 11335 11
8502 11333 11336 12
8503 11337 11338 11
8504 11337 11339 11
8505 11337 11340 12
8506 11341 11342 11
8507 11341 11343 11
8508 11341 11344 12
8509 11345 11346 11
8510 11345 11347 11
8511 11345 11348 12
8512 11349 11350 11
8513 11349 11351 11
8514 11349 11352 12
8515 11353 11354 11
8516 11353 11355 11
8517 11353 11356 12
8518 11357 11358 11
8519 11357 11359 11
8520 11357 11360 12
8521 11361 11362 11
8522 11361 11363 11
8523 11361 11364 12
8524 11365 11366 11
8525 11365 11367 11
8526 11365 11368 12
8527 11369 11370 11
8528 11369 11371 11
8529 11369 11372 12
8530 11373 11374 11
8531 11373 11375 11
8532 11373 11376 12
8533 11377 11378 11
8534 11377 11379 11
8535 11377 11380 12
8536 11381 11382 11
8537 11381 11383 11
8538 11381 11384 12
8539 11385 11386 11
8540 11385 11387 11
8541 11385 11388 12
8542 11389 11390 11
8543 11389 11391 11
8544 11389 11392 12
8545 11393 11394 11
8546 11393 11395 11
8547 11393 11396 12
8548 11397 11398 11
8549 11397 11399 11
8550 11397 11400 12
8551 11401 11402 11
8552 11401 11403 11
8553 11401 11404 12
8554 11405 11406 11
8555 11405 11407 11
8556 11405 11408 12
8557 11409 11410 11
8558 11409 11411 11
8559 11409 11412 12
8560 11413 11414 11
8561 11413 11415 11
8562 11413 11416 12
8563 11417 11418 11
8564 11417 11419 11
8565 11417 11420 12
8566 11421 11422 11
8567 11421 11423 11
8568 11421 11424 12
8569 11425 11426 11
8570 11425 11427 11
8571 11425 11428 12
8572 11429 11430 11
8573 11429 11431 11
8574 11429 11432 12
8575 11433 11434 11
8576 11433 11435 11
8577 11433 11436 12
8578 11437 11438 11
8579 11437 11439 11
8580 11437 11440 12
8581 11441 11442 11
8582 11441 11443 11
8583 11441 11444 12
8584 11445 11446 11
8585 11445 11447 11
8586 11445 11448 12
8587 11449 11450 11
8588 11449 11451 11
8589 11449 11452 12
8590 11453 11454 11
8591 11453 11455 11
8592 11453 11456 12
8593 11457 11458 11
8594 11457 11459 11
8595 11457 11460 12
8596 11461 11462 11
8597 11461 11463 11
8598 11461 11464 12
8599 11465 11466 11
8600 11465 11467 11
8601 11465 11468 12
8602 11469 11470 11
8603 11469 11471 11
8604 11469 11472 12
8605 11473 11474 11
8606 11473 11475 11
8607 11473 11476 12
8608 11477 11478 11
8609 11477 11479 11
8610 11477 11480 12
8611 11481 11482 11
8612 11481 11483 11
8613 11481 11484 12
8614 11485 11486 11
8615 11485 11487 11
8616 11485 11488 12
8617 11489 11490 11
8618 11489 11491 11
8619 11489 11492 12
8620 11493 11494 11
8621 11493 11495 11
8622 11493 11496 12
8623 11497 11498 11
8624 11497 11499 11
8625 11497 11500 12
8626 11501 11502 11
8627 11501 11503 11
8628 11501 11504 12
8629 11505 11506 11
8630 11505 11507 11
8631 11505 11508 12
8632 11509 11510 11
8633 11509 11511 11
8634 11509 11512 12
8635 11513 11514 11
8636 11513 11515 11
8637 11513 11516 12
8638 11517 11518 11
8639 11517 11519 11
8640 11517 11520 12
8641 11521 11522 11
8642 11521 11523 11
8643 11521 11524 12
8644 11525 11526 11
8645 11525 11527 11
8646 11525 11528 12
8647 11529 11530 11
8648 11529 11531 11
8649 11529 11532 12
8650 11533 11534 11
8651 11533 11535 11
8652 11533 11536 12
8653 11537 11538 11
8654 11537 11539 11
8655 11537 11540 12
8656 11541 11542 11
8657 11541 11543 11
8658 11541 11544 12
8659 11545 11546 11
8660 11545 11547 11
8661 11545 11548 12
8662 11549 11550 11
8663 11549 11551 11
8664 11549 11552 12
8665 11553 11554 11
8666 11553 11555 11
8667 11553 11556 12
8668 11557 11558 11
8669 11557 11559 11
8670 11557 11560 12
8671 11561 11562 11
8672 11561 11563 11
8673 11561 11564 12
8674 11565 11566 11
8675 11565 11567 11
8676 11565 11568 12
8677 11569 11570 11
8678 11569 11571 11
8679 11569 11572 12
8680 11573 11574 11
8681 11573 11575 11
8682 11573 11576 12
8683 11577 11578 11
8684 11577 11579 11
8685 11577 11580 12
8686 11581 11582 11
8687 11581 11583 11
8688 11581 11584 12
8689 11585 11586 11
8690 11585 11587 11
8691 11585 11588 12
8692 11589 11590 11
8693 11589 11591 11
8694 11589 11592 12
8695 11593 11594 11
8696 11593 11595 11
8697 11593 11596 12
8698 11597 11598 11
8699 11597 11599 11
8700 11597 11600 12
8701 11601 11602 11
8702 11601 11603 11
8703 11601 11604 12
8704 11605 11606 11
8705 11605 11607 11
8706 11605 11608 12
8707 11609 11610 11
8708 11609 11611 11
8709 11609 11612 12
8710 11613 11614 11
8711 11613 11615 11
8712 11613 11616 12
8713 11617 11618 11
8714 11617 11619 11
8715 11617 11620 12
8716 11621 11622 11
8717 11621 11623 11
8718 11621 11624 12
8719 11625 11626 11
8720 11625 11627 11
8721 11625 11628 12
8722 11629 11630 11
8723 11629 11631 11
8724 11629 11632 12
8725 11633 11634 11
8726 11633 11635 11
8727 11633 11636 12
8728 11637 11638 11
8729 11637 11639 11
8730 11637 11640 12
8731 11641 11642 11
8732 11641 11643 11
8733 11641 11644 12
8734 11645 11646 11
8735 11645 11647 11
8736 11645 11648 12
8737 11649 11650 11
8738 11649 11651 11
8739 11649 11652 12
8740 11653 11654 11
8741 11653 11655 11
8742 11653 11656 12
8743 11657 11658 11
8744 11657 11659 11
8745 11657 11660 12
8746 11661 11662 11
8747 11661 11663 11
8748 11661 11664 12
8749 11665 11666 11
8750 11665 11667 11
8751 11665 11668 12
8752 11669 11670 11
8753 11669 11671 11
8754 11669 11672 12
8755 11673 11674 11
8756 11673 11675 11
8757 11673 11676 12
8758 11677 11678 11
8759 11677 11679 11
8760 11677 11680 12
8761 11681 11682 11
8762 11681 11683 11
8763 11681 11684 12
8764 11685 11686 11
8765 11685 11687 11
8766 11685 11688 12
8767 11689 11690 11
8768 11689 11691 11
8769 11689 11692 12
8770 11693 11694 11
8771 11693 11695 11
8772 11693 11696 12
8773 11697 11698 11
8774 11697 11699 11
8775 11697 11700 12
8776 11701 11702 11
8777 11701 11703 11
8778 11701 11704 12
8779 11705 11706 11
8780 11705 11707 11
8781 11705 11708 12
8782 11709 11710 11
8783 11709 11711 11
8784 11709 11712 12
8785 11713 11714 11
8786 11713 11715 11
8787 11713 11716 12
8788 11717 11718 11
8789 11717 11719 11
8790 11717 11720 12
8791 11721 11722 11
8792 11721 11723 11
8793 11721 11724 12
8794 11725 11726 11
8795 11725 11727 11
8796 11725 11728 12
8797 11729 11730 11
8798 11729 11731 11
8799 11729 11732 12
8800 11733 11734 11
8801 11733 11735 11
8802 11733 11736 12
8803 11737 11738 11
8804 11737 11739 11
8805 11737 11740 12
8806 11741 11742 11
8807 11741 11743 11
8808 11741 11744 12
8809 11745 11746 11
8810 11745 11747 11
8811 11745 11748 12
8812 11749 11750 11
8813 11749 11751 11
8814 11749 11752 12
8815 11753 11754 11
8816 11753 11755 11
8817 11753 11756 12
8818 11757 11758 11
8819 11757 11759 11
8820 11757 11760 12
8821 11761 11762 11
8822 11761 11763 11
8823 11761 11764 12
8824 11765 11766 11
8825 11765 11767 11
8826 11765 11768 12
8827 11769 11770 11
8828 11769 11771 11
8829 11769 11772 12
8830 11773 11774 11
8831 11773 11775 11
8832 11773 11776 12
8833 11777 11778 11
8834 11777 11779 11
8835 11777 11780 12
8836 11781 11782 11
8837 11781 11783 11
8838 11781 11784 12
8839 11785 11786 11
8840 11785 11787 11
8841 11785 11788 12
8842 11789 11790 11
8843 11789 11791 11
8844 11789 11792 12
8845 11793 11794 11
8846 11793 11795 11
8847 11793 11796 12
8848 11797 11798 11
8849 11797 11799 11
8850 11797 11800 12
8851 11801 11802 11
8852 11801 11803 11
8853 11801 11804 12
8854 11805 11806 11
8855 11805 11807 11
8856 11805 11808 12
8857 11809 11810 11
8858 11809 11811 11
8859 11809 11812 12
8860 11813 11814 11
8861 11813 11815 11
8862 11813 11816 12
8863 11817 11818 11
8864 11817 11819 11
8865 11817 11820 12
8866 11821 11822 11
8867 11821 11823 11
8868 11821 11824 12
8869 11825 11826 11
8870 11825 11827 11
8871 11825 11828 12
8872 11829 11830 11
8873 11829 11831 11
8874 11829 11832 12
8875 11833 11834 11
8876 11833 11835 11
8877 11833 11836 12
8878 11837 11838 11
8879 11837 11839 11
8880 11837 11840 12
8881 11841 11842 11
8882 11841 11843 11
8883 11841 11844 12
8884 11845 11846 11
8885 11845 11847 11
8886 11845 11848 12
8887 11849 11850 11
8888 11849 11851 11
8889 11849 11852 12
8890 11853 11854 11
8891 11853 11855 11
8892 11853 11856 12
8893 11857 11858 11
8894 11857 11859 11
8895 11857 11860 12
8896 11861 11862 11
8897 11861 11863 11
8898 11861 11864 12
8899 11865 11866 11
8900 11865 11867 11
8901 11865 11868 12
8902 11869 11870 11
8903 11869 11871 11
8904 11869 11872 12
8905 11873 11874 11
8906 11873 11875 11
8907 11873 11876 12
8908 11877 11878 11
8909 11877 11879 11
8910 11877 11880 12
8911 11881 11882 11
8912 11881 11883 11
8913 11881 11884 12
8914 11885 11886 11
8915 11885 11887 11
8916 11885 11888 12
8917 11889 11890 11
8918 11889 11891 11
8919 11889 11892 12
8920 11893 11894 11
8921 11893 11895 11
8922 11893 11896 12
8923 11897 11898 11
8924 11897 11899 11
8925 11897 11900 12
8926 11901 11902 11
8927 11901 11903 11
8928 11901 11904 12
8929 11905 11906 11
8930 11905 11907 11
8931 11905 11908 12
8932 11909 11910 11
8933 11909 11911 11
8934 11909 11912 12
8935 11913 11914 11
8936 11913 11915 11
8937 11913 11916 12
8938 11917 11918 11
8939 11917 11919 11
8940 11917 11920 12
8941 11921 11922 11
8942 11921 11923 11
8943 11921 11924 12
8944 11925 11926 11
8945 11925 11927 11
8946 11925 11928 12
8947 11929 11930 11
8948 11929 11931 11
8949 11929 11932 12
8950 11933 11934 11
8951 11933 11935 11
8952 11933 11936 12
8953 11937 11938 11
8954 11937 11939 11
8955 11937 11940 12
8956 11941 11942 11
8957 11941 11943 11
8958 11941 11944 12
8959 11945 11946 11
8960 11945 11947 11
8961 11945 11948 12
8962 11949 11950 11
8963 11949 11951 11
8964 11949 11952 12
8965 11953 11954 11
8966 11953 11955 11
8967 11953 11956 12
8968 11957 11958 11
8969 11957 11959 11
8970 11957 11960 12
8971 11961 11962 11
8972 11961 11963 11
8973 11961 11964 12
8974 11965 11966 11
8975 11965 11967 11
8976 11965 11968 12
8977 11969 11970 11
8978 11969 11971 11
8979 11969 11972 12
8980 11973 11974 11
8981 11973 11975 11
8982 11973 11976 12
8983 11977 11978 11
8984 11977 11979 11
8985 11977 11980 12
8986 11981 11982 11
8987 11981 11983 11
8988 11981 11984 12
8989 11985 11986 11
8990 11985 11987 11
8991 11985 11988 12
8992 11989 11990 11
8993 11989 11991 11
8994 11989 11992 12
8995 11993 11994 11
8996 11993 11995 11
8997 11993 11996 12
8998 11997 11998 11
8999 11997 11999 11
9000 11997 12000 12
9001 12001 12002 11
9002 12001 12003 11
9003 12001 12004 12
9004 12005 12006 11
9005 12005 12007 11
9006 12005 12008 12
9007 12009 12010 11
9008 12009 12011 11
9009 12009 12012 12
9010 12013 12014 11
9011 12013 12015 11
9012 12013 12016 12
9013 12017 12018 11
9014 12017 12019 11
9015 12017 12020 12
9016 12021 12022 11
9017 12021 12023 11
9018 12021 12024 12
9019 12025 12026 11
9020 12025 12027 11
9021 12025 12028 12
9022 12029 12030 11
9023 12029 12031 11
9024 12029 12032 12
9025 12033 12034 11
9026 12033 12035 11
9027 12033 12036 12
9028 12037 12038 11
9029 12037 12039 11
9030 12037 12040 12
9031 12041 12042 11
9032 12041 12043 11
9033 12041 12044 12
9034 12045 12046 11
9035 12045 12047 11
9036 12045 12048 12
9037 12049 12050 11
9038 12049 12051 11
9039 12049 12052 12
9040 12053 12054 11
9041 12053 12055 11
9042 12053 12056 12
9043 12057 12058 11
9044 12057 12059 11
9045 12057 12060 12
9046 12061 12062 11
9047 12061 12063 11
9048 12061 12064 12
9049 12065 12066 11
9050 12065 12067 11
9051 12065 12068 12
9052 12069 12070 11
9053 12069 12071 11
9054 12069 12072 12
9055 12073 12074 11
9056 12073 12075 11
9057 12073 12076 12
9058 12077 12078 11
9059 12077 12079 11
9060 12077 12080 12
9061 12081 12082 11
9062 12081 12083 11
9063 12081 12084 12
9064 12085 12086 11
9065 12085 12087 11
9066 12085 12088 12
9067 12089 12090 11
9068 12089 12091 11
9069 12089 12092 12
9070 12093 12094 11
9071 12093 12095 11
9072 12093 12096 12
9073 12097 12098 11
9074 12097 12099 11
9075 12097 12100 12
9076 12101 12102 11
9077 12101 12103 11
9078 12101 12104 12
9079 12105 12106 11
9080 12105 12107 11
9081 12105 12108 12
9082 12109 12110 11
9083 12109 12111 11
9084 12109 12112 12
9085 12113 12114 11
9086 12113 12115 11
9087 12113 12116 12
9088 12117 12118 11
9089 12117 12119 11
9090 12117 12120 12
9091 12121 12122 11
9092 12121 12123 11
9093 12121 12124 12
9094 12125 12126 11
9095 12125 12127 11
9096 12125 12128 12
9097 12129 12130 11
9098 12129 12131 11
9099 12129 12132 12
9100 12133 12134 11
9101 12133 12135 11
9102 12133 12136 12
9103 12137 12138 11
9104 12137 12139 11
9105 12137 12140 12
9106 12141 12142 11
9107 12141 12143 11
9108 12141 12144 12
9109 12145 12146 11
9110 12145 12147 11
9111 12145 12148 12
9112 12149 12150 11
9113 12149 12151 11
9114 12149 12152 12
9115 12153 12154 11
9116 12153 12155 11
9117 12153 12156 12
9118 12157 12158 11
9119 12157 12159 11
9120 12157 12160 12
9121 12161 12162 11
9122 12161 12163 11
9123 12161 12164 12
9124 12165 12166 11
9125 12165 12167 11
9126 12165 12168 12
9127 12169 12170 11
9128 12169 12171 11
9129 12169 12172 12
9130 12173 12174 11
9131 12173 12175 11
9132 12173 12176 12
9133 12177 12178 11
9134 12177 12179 11
9135 12177 12180 12
9136 12181 12182 11
9137 12181 12183 11
9138 12181 12184 12
9139 12185 12186 11
9140 12185 12187 11
9141 12185 12188 12
9142 12189 12190 11
9143 12189 12191 11
9144 12189 12192 12
9145 12193 12194 11
9146 12193 12195 11
9147 12193 12196 12
9148 12197 12198 11
9149 12197 12199 11
9150 12197 12200 12
9151 12201 12202 11
9152 12201 12203 11
9153 12201 12204 12
9154 12205 12206 11
9155 12205 12207 11
9156 12205 12208 12
9157 12209 12210 11
9158 12209 12211 11
9159 12209 12212 12
9160 12213 12214 11
9161 12213 12215 11
9162 12213 12216 12
9163 12217 12218 11
9164 12217 12219 11
9165 12217 12220 12
9166 12221 12222 11
9167 12221 12223 11
9168 12221 12224 12
9169 12225 12226 11
9170 12225 12227 11
9171 12225 12228 12
9172 12229 12230 11
9173 12229 12231 11
9174 12229 12232 12
9175 12233 12234 11
9176 12233 12235 11
9177 12233 12236 12
9178 12237 12238 11
9179 12237 12239 11
9180 12237 12240 12
9181 12241 12242 11
9182 12241 12243 11
9183 12241 12244 12
9184 12245 12246 11
9185 12245 12247 11
9186 12245 12248 12
9187 12249 12250 11
9188 12249 12251 11
9189 12249 12252 12
9190 12253 12254 11
9191 12253 12255 11
9192 12253 12256 12
9193 12257 12258 11
9194 12257 12259 11
9195 12257 12260 12
9196 12261 12262 11
9197 12261 12263 11
9198 12261 12264 12
9199 12265 12266 11
9200 12265 12267 11
9201 12265 12268 12
9202 12269 12270 11
9203 12269 12271 11
9204 12269 12272 12
9205 12273 12274 11
9206 12273 12275 11
9207 12273 12276 12
9208 12277 12278 11
9209 12277 12279 11
9210 12277 12280 12
9211 12281 12282 11
9212 12281 12283 11
9213 12281 12284 12
9214 12285 12286 11
9215 12285 12287 11
9216 12285 12288 12
9217 12289 12290 11
9218 12289 12291 11
9219 12289 12292 12
9220 12293 12294 11
9221 12293 12295 11
9222 12293 12296 12
9223 12297 12298 11
9224 12297 12299 11
9225 12297 12300 12
9226 12301 12302 11
9227 12301 12303 11
9228 12301 12304 12
9229 12305 12306 11
9230 12305 12307 11
9231 12305 12308 12
9232 12309 12310 11
9233 12309 12311 11
9234 12309 12312 12
9235 12313 12314 11
9236 12313 12315 11
9237 12313 12316 12
9238 12317 12318 11
9239 12317 12319 11
9240 12317 12320 12
9241 12321 12322 11
9242 12321 12323 11
9243 12321 12324 12
9244 12325 12326 11
9245 12325 12327 11
9246 12325 12328 12
9247 12329 12330 11
9248 12329 12331 11
9249 12329 12332 12
9250 12333 12334 11
9251 12333 12335 11
9252 12333 12336 12
9253 12337 12338 11
9254 12337 12339 11
9255 12337 12340 12
9256 12341 12342 11
9257 12341 12343 11
9258 12341 12344 12
9259 12345 12346 11
9260 12345 12347 11
9261 12345 12348 12
9262 12349 12350 11
9263 12349 12351 11
9264 12349 12352 12
9265 12353 12354 11
9266 12353 12355 11
9267 12353 12356 12
9268 12357 12358 11
9269 12357 12359 11
9270 12357 12360 12
9271 12361 12362 11
9272 12361 12363 11
9273 12361 12364 12
9274 12365 12366 11
9275 12365 12367 11
9276 12365 12368 12
9277 12369 12370 11
9278 12369 12371 11
9279 12369 12372 12
9280 12373 12374 11
9281 12373 12375 11
9282 12373 12376 12
9283 12377 12378 11
9284 12377 12379 11
9285 12377 12380 12
9286 12381 12382 11
9287 12381 12383 11
9288 12381 12384 12
9289 12385 12386 11
9290 12385 12387 11
9291 12385 12388 12
9292 12389 12390 11
9293 12389 12391 11
9294 12389 12392 12
9295 12393 12394 11
9296 12393 12395 11
9297 12393 12396 12
9298 12397 12398 11
9299 12397 12399 11
9300 12397 12400 12
9301 12401 12402 11
9302 12401 12403 11
9303 12401 12404 12
9304 12405 12406 11
9305 12405 12407 11
9306 12405 12408 12
9307 12409 12410 11
9308 12409 12411 11
9309 12409 12412 12
9310 12413 12414 11
9311 12413 12415 11
9312 12413 12416 12
9313 12417 12418 11
9314 12417 12419 11
9315 12417 12420 12
9316 12421 12422 11
9317 12421 12423 11
9318 12421 12424 12
9319 12425 12426 11
9320 12425 12427 11
9321 12425 12428 12
9322 12429 12430 11
9323 12429 12431 11
9324 12429 12432 12
9325 12433 12434 11
9326 12433 12435 11
9327 12433 12436 12
9328 12437 12438 11
9329 12437 12439 11
9330 12437 12440 12
9331 12441 12442 11
9332 12441 12443 11
9333 12441 12444 12
9334 12445 12446 11
9335 12445 12447 11
9336 12445 12448 12
9337 12449 12450 11
9338 12449 12451 11
9339 12449 12452 12
9340 12453 12454 11
9341 12453 12455 11
9342 12453 12456 12
9343 12457 12458 11
9344 12457 12459 11
9345 12457 12460 12
9346 12461 12462 11
9347 12461 12463 11
9348 12461 12464 12
9349 12465 12466 11
9350 12465 12467 11
9351 12465 12468 12
9352 12469 12470 11
9353 12469 12471 11
9354 12469 12472 12
9355 12473 12474 11
9356 12473 12475 11
9357 12473 12476 12
9358 12477 12478 11
9359 12477 12479 11
9360 12477 12480 12
9361 12481 12482 11
9362 12481 12483 11
9363 12481 12484 12
9364 12485 12486 11
9365 12485 12487 11
9366 12485 12488 12
9367 12489 12490 11
9368 12489 12491 11
9369 12489 12492 12
9370 12493 12494 11
9371 12493 12495 11
9372 12493 12496 12
9373 12497 12498 11
9374 12497 12499 11
9375 12497 12500 12
9376 12501 12502 11
9377 12501 12503 11
9378 12501 12504 12
9379 12505 12506 11
9380 12505 12507 11
9381 12505 12508 12
9382 12509 12510 11
9383 12509 12511 11
9384 12509 12512 12
9385 12513 12514 11
9386 12513 12515 11
9387 12513 12516 12
9388 12517 12518 11
9389 12517 12519 11
9390 12517 12520 12
9391 12521 12522 11
9392 12521 12523 11
9393 12521 12524 12
9394 12525 12526 11
9395 12525 12527 11
9396 12525 12528 12
9397 12529 12530 11
9398 12529 12531 11
9399 12529 12532 12
9400 12533 12534 11
9401 12533 12535 11
9402 12533 12536 12
9403 12537 12538 11
9404 12537 12539 11
9405 12537 12540 12
9406 12541 12542 11
9407 12541 12543 11
9408 12541 12544 12
9409 12545 12546 11
9410 12545 12547 11
9411 12545 12548 12
9412 12549 12550 11
9413 12549 12551 11
9414 12549 12552 12
9415 12553 12554 11
9416 12553 12555 11
9417 12553 12556 12
9418 12557 12558 11
9419 12557 12559 11
9420 12557 12560 12
9421 12561 12562 11
9422 12561 12563 11
9423 12561 12564 12
9424 12565 12566 11
9425 12565 12567 11
9426 12565 12568 12
9427 12569 12570 11
9428 12569 12571 11
9429 12569 12572 12
9430 12573 12574 11
9431 12573 12575 11
9432 12573 12576 12
9433 12577 12578 11
9434 12577 12579 11
9435 12577 12580 12
9436 12581 12582 11
9437 12581 12583 11
9438 12581 12584 12
9439 12585 12586 11
9440 12585 12587 11
9441 12585 12588 12
9442 12589 12590 11
9443 12589 12591 11
9444 12589 12592 12
9445 12593 12594 11
9446 12593 12595 11
9447 12593 12596 12
9448 12597 12598 11
9449 12597 12599 11
9450 12597 12600 12
9451 12601 12602 11
9452 12601 12603 11
9453 12601 12604 12
9454 12605 12606 11
9455 12605 12607 11
9456 12605 12608 12
9457 12609 12610 11
9458 12609 12611 11
9459 12609 12612 12
9460 12613 12614 11
9461 12613 12615 11
9462 12613 12616 12
9463 12617 12618 11
9464 12617 12619 11
9465 12617 12620 12
9466 12621 12622 11
9467 12621 12623 11
9468 12621 12624 12
9469 12625 12626 11
9470 12625 12627 11
9471 12625 12628 12
9472 12629 12630 11
9473 12629 12631 11
9474 12629 12632 12
9475 12633 12634 11
9476 12633 12635 11
9477 12633 12636 12
9478 12637 12638 11
9479 12637 12639 11
9480 12637 12640 12
9481 12641 12642 11
9482 12641 12643 11
9483 12641 12644 12
9484 12645 12646 11
9485 12645 12647 11
9486 12645 12648 12
9487 12649 12650 11
9488 12649 12651 11
9489 12649 12652 12
9490 12653 12654 11
9491 12653 12655 11
9492 12653 12656 12
9493 12657 12658 11
9494 12657 12659 11
9495 12657 12660 12
9496 12661 12662 11
9497 12661 12663 11
9498 12661 12664 12
9499 12665 12666 11
9500 12665 12667 11
9501 12665 12668 12
9502 12669 12670 11
9503 12669 12671 11
9504 12669 12672 12
9505 12673 12674 11
9506 12673 12675 11
9507 12673 12676 12
9508 12677 12678 11
9509 12677 12679 11
9510 12677 12680 12
9511 12681 12682 11
9512 12681 12683 11
9513 12681 12684 12
9514 12685 12686 11
9515 12685 12687 11
9516 12685 12688 12
9517 12689 12690 11
9518 12689 12691 11
9519 12689 12692 12
9520 12693 12694 11
9521 12693 12695 11
9522 12693 12696 12
9523 12697 12698 11
9524 12697 12699 11
9525 12697 12700 12
9526 12701 12702 11
9527 12701 12703 11
9528 12701 12704 12
9529 12705 12706 11
9530 12705 12707 11
9531 12705 12708 12
9532 12709 12710 11
9533 12709 12711 11
9534 12709 12712 12
9535 12713 12714 11
9536 12713 12715 11
9537 12713 12716 12
9538 12717 12718 11
9539 12717 12719 11
9540 12717 12720 12
9541 12721 12722 11
9542 12721 12723 11
9543 12721 12724 12
9544 12725 12726 11
9545 12725 12727 11
9546 12725 12728 12
9547 12729 12730 11
9548 12729 12731 11
9549 12729 12732 12
9550 12733 12734 11
9551 12733 12735 11
9552 12733 12736 12
9553 12737 12738 11
9554 12737 12739 11
9555 12737 12740 12
9556 12741 12742 11
9557 12741 12743 11
9558 12741 12744 12
9559 12745 12746 11
9560 12745 12747 11
9561 12745 12748 12
9562 12749 12750 11
9563 12749 12751 11
9564 12749 12752 12
9565 12753 12754 11
9566 12753 12755 11
9567 12753 12756 12
9568 12757 12758 11
9569 12757 12759 11
9570 12757 12760 12
9571 12761 12762 11
9572 12761 12763 11
9573 12761 12764 12
9574 12765 12766 11
9575 12765 12767 11
9576 12765 12768 12
9577 12769 12770 11
9578 12769 12771 11
9579 12769 12772 12
9580 12773 12774 11
9581 12773 12775 11
9582 12773 12776 12
9583 12777 12778 11
9584 12777 12779 11
9585 12777 12780 12
9586 12781 12782 11
9587 12781 12783 11
9588 12781 12784 12
9589 12785 12786 11
9590 12785 12787 11
9591 12785 12788 12
9592 12789 12790 11
9593 12789 12791 11
9594 12789 12792 12
9595 12793 12794 11
9596 12793 12795 11
9597 12793 12796 12
9598 12797 12798 11
9599 12797 12799 11
9600 12797 12800 12
9601 12801 12802 11
9602 12801 12803 11
9603 12801 12804 12
9604 12805 12806 11
9605 12805 12807 11
9606 12805 12808 12
9607 12809 12810 11
9608 12809 12811 11
9609 12809 12812 12
9610 12813 12814 11
9611 12813 12815 11
9612 12813 12816 12
9613 12817 12818 11
9614 12817 12819 11
9615 12817 12820 12
9616 12821 12822 11
9617 12821 12823 11
9618 12821 12824 12
9619 12825 12826 11
9620 12825 12827 11
9621 12825 12828 12
9622 12829 12830 11
9623 12829 12831 11
9624 12829 12832 12
9625 12833 12834 11
9626 12833 12835 11
9627 12833 12836 12
9628 12837 12838 11
9629 12837 12839 11
9630 12837 12840 12
9631 12841 12842 11
9632 12841 12843 11
9633 12841 12844 12
9634 12845 12846 11
9635 12845 12847 11
9636 12845 12848 12
9637 12849 12850 11
9638 12849 12851 11
9639 12849 12852 12
9640 12853 12854 11
9641 12853 12855 11
9642 12853 12856 12
9643 12857 12858 11
9644 12857 12859 11
9645 12857 12860 12
9646 12861 12862 11
9647 12861 12863 11
9648 12861 12864 12
9649 12865 12866 11
9650 12865 12867 11
9651 12865 12868 12
9652 12869 12870 11
9653 12869 12871 11
9654 12869 12872 12
9655 12873 12874 11
9656 12873 12875 11
9657 12873 12876 12
9658 12877 12878 11
9659 12877 12879 11
9660 12877 12880 12
9661 12881 12882 11
9662 12881 12883 11
9663 12881 12884 12
9664 12885 12886 11
9665 12885 12887 11
9666 12885 12888 12
9667 12889 12890 11
9668 12889 12891 11
9669 12889 12892 12
9670 12893 12894 11
9671 12893 12895 11
9672 12893 12896 12
9673 12897 12898 11
9674 12897 12899 11
9675 12897 12900 12
9676 12901 12902 11
9677 12901 12903 11
9678 12901 12904 12
9679 12905 12906 11
9680 12905 12907 11
9681 12905 12908 12
9682 12909 12910 11
9683 12909 12911 11
9684 12909 12912 12
9685 12913 12914 11
9686 12913 12915 11
9687 12913 12916 12
9688 12917 12918 11
9689 12917 12919 11
9690 12917 12920 12
9691 12921 12922 11
9692 12921 12923 11
9693 12921 12924 12
9694 12925 12926 11
9695 12925 12927 11
9696 12925 12928 12
9697 12929 12930 11
9698 12929 12931 11
9699 12929 12932 12
9700 12933 12934 11
9701 12933 12935 11
9702 12933 12936 12
9703 12937 12938 11
9704 12937 12939 11
9705 12937 12940 12
9706 12941 12942 11
9707 12941 12943 11
9708 12941 12944 12
9709 12945 12946 11
9710 12945 12947 11
9711 12945 12948 12
9712 12949 12950 11
9713 12949 12951 11
9714 12949 12952 12
9715 12953 12954 11
9716 12953 12955 11
9717 12953 12956 12
9718 12957 12958 11
9719 12957 12959 11
9720 12957 12960 12
9721 12961 12962 11
9722 12961 12963 11
9723 12961 12964 12
9724 12965 12966 11
9725 12965 12967 11
9726 12965 12968 12
9727 12969 12970 11
9728 12969 12971 11
9729 12969 12972 12
9730 12973 12974 11
9731 12973 12975 11
9732 12973 12976 12
9733 12977 12978 11
9734 12977 12979 11
9735 12977 12980 12
9736 12981 12982 11
9737 12981 12983 11
9738 12981 12984 12
9739 12985 12986 11
9740 12985 12987 11
9741 12985 12988 12
9742 12989 12990 11
9743 12989 12991 11
9744 12989 12992 12
9745 12993 12994 11
9746 12993 12995 11
9747 12993 12996 12
9748 12997 12998 11
9749 12997 12999 11
9750 12997 13000 12
9751 13001 13002 11
9752 13001 13003 11
9753 13001 13004 12
9754 13005 13006 11
9755 13005 13007 11
9756 13005 13008 12
9757 13009 13010 11
9758 13009 13011 11
9759 13009 13012 12
9760 13013 13014 11
9761 13013 13015 11
9762 13013 13016 12
9763 13017 13018 11
9764 13017 13019 11
9765 13017 13020 12
9766 13021 13022 11
9767 13021 13023 11
9768 13021 13024 12
9769 13025 13026 11
9770 13025 13027 11
9771 13025 13028 12
9772 13029 13030 11
9773 13029 13031 11
9774 13029 13032 12
9775 13033 13034 11
9776 13033 13035 11
9777 13033 13036 12
9778 13037 13038 11
9779 13037 13039 11
9780 13037 13040 12
9781 13041 13042 11
9782 13041 13043 11
9783 13041 13044 12
9784 13045 13046 11
9785 13045 13047 11
9786 13045 13048 12
9787 13049 13050 11
9788 13049 13051 11
9789 13049 13052 12
9790 13053 13054 11
9791 13053 13055 11
9792 13053 13056 12
9793 13057 13058 11
9794 13057 13059 11
9795 13057 13060 12
9796 13061 13062 11
9797 13061 13063 11
9798 13061 13064 12
9799 13065 13066 11
9800 13065 13067 11
9801 13065 13068 12
9802 13069 13070 11
9803 13069 13071 11
9804 13069 13072 12
9805 13073 13074 11
9806 13073 13075 11
9807 13073 13076 12
9808 13077 13078 11
9809 13077 13079 11
9810 13077 13080 12
9811 13081 13082 11
9812 13081 13083 11
9813 13081 13084 12
9814 13085 13086 11
9815 13085 13087 11
9816 13085 13088 12
9817 13089 13090 11
9818 13089 13091 11
9819 13089 13092 12
9820 13093 13094 11
9821 13093 13095 11
9822 13093 13096 12
9823 13097 13098 11
9824 13097 13099 11
9825 13097 13100 12
9826 13101 13102 11
9827 13101 13103 11
9828 13101 13104 12
9829 13105 13106 11
9830 13105 13107 11
9831 13105 13108 12
9832 13109 13110 11
9833 13109 13111 11
9834 13109 13112 12
9835 13113 13114 11
9836 13113 13115 11
9837 13113 13116 12
9838 13117 13118 11
9839 13117 13119 11
9840 13117 13120 12
9841 13121 13122 11
9842 13121 13123 11
9843 13121 13124 12
9844 13125 13126 11
9845 13125 13127 11
9846 13125 13128 12
9847 13129 13130 11
9848 13129 13131 11
9849 13129 13132 12
9850 13133 13134 11
9851 13133 13135 11
9852 13133 13136 12
9853 13137 13138 11
9854 13137 13139 11
9855 13137 13140 12
9856 13141 13142 11
9857 13141 13143 11
9858 13141 13144 12
9859 13145 13146 11
9860 13145 13147 11
9861 13145 13148 12
9862 13149 13150 11
9863 13149 13151 11
9864 13149 13152 12
9865 13153 13154 11
9866 13153 13155 11
9867 13153 13156 12
9868 13157 13158 11
9869 13157 13159 11
9870 13157 13160 12
9871 13161 13162 11
9872 13161 13163 11
9873 13161 13164 12
9874 13165 13166 11
9875 13165 13167 11
9876 13165 13168 12
9877 13169 13170 11
9878 13169 13171 11
9879 13169 13172 12
9880 13173 13174 11
9881 13173 13175 11
9882 13173 13176 12
9883 13177 13178 11
9884 13177 13179 11
9885 13177 13180 12
9886 13181 13182 11
9887 13181 13183 11
9888 13181 13184 12
9889 13185 13186 11
9890 13185 13187 11
9891 13185 13188 12
9892 13189 13190 11
9893 13189 13191 11
9894 13189 13192 12
9895 13193 13194 11
9896 13193 13195 11
9897 13193 13196 12
9898 13197 13198 11
9899 13197 13199 11
9900 13197 13200 12
9901 13201 13202 11
9902 13201 13203 11
9903 13201 13204 12
9904 13205 13206 11
9905 13205 13207 11
9906 13205 13208 12
9907 13209 13210 11
9908 13209 13211 11
9909 13209 13212 12
9910 13213 13214 11
9911 13213 13215 11
9912 13213 13216 12
9913 13217 13218 11
9914 13217 13219 11
9915 13217 13220 12
9916 13221 13222 11
9917 13221 13223 11
9918 13221 13224 12
9919 13225 13226 11
9920 13225 13227 11
9921 13225 13228 12
9922 13229 13230 11
9923 13229 13231 11
9924 13229 13232 12
9925 13233 13234 11
9926 13233 13235 11
9927 13233 13236 12
9928 13237 13238 11
9929 13237 13239 11
9930 13237 13240 12
9931 13241 13242 11
9932 13241 13243 11
9933 13241 13244 12
9934 13245 13246 11
9935 13245 13247 11
9936 13245 13248 12
9937 13249 13250 11
9938 13249 13251 11
9939 13249 13252 12
9940 13253 13254 11
9941 13253 13255 11
9942 13253 13256 12
9943 13257 13258 11
9944 13257 13259 11
9945 13257 13260 12
9946 13261 13262 11
9947 13261 13263 11
9948 13261 13264 12
9949 13265 13266 11
9950 13265 13267 11
9951 13265 13268 12
9952 13269 13270 11
9953 13269 13271 11
9954 13269 13272 12
9955 13273 13274 11
9956 13273 13275 11
9957 13273 13276 12
9958 13277 13278 11
9959 13277 13279 11
9960 13277 13280 12
9961 13281 13282 11
9962 13281 13283 11
9963 13281 13284 12
9964 13285 13286 11
9965 13285 13287 11
9966 13285 13288 12
9967 13289 13290 11
9968 13289 13291 11
9969 13289 13292 12
9970 13293 13294 11
9971 13293 13295 11
9972 13293 13296 12
9973 13297 13298 11
9974 13297 13299 11
9975 13297 13300 12
9976 13301 13302 11
9977 13301 13303 11
9978 13301 13304 12
9979 13305 13306 11
9980 13305 13307 11
9981 13305 13308 12
9982 13309 13310 11
9983 13309 13311 11
9984 13309 13312 12
9985 13313 13314 11
9986 13313 13315 11
9987 13313 13316 12
9988 13317 13318 11
9989 13317 13319 11
9990 13317 13320 12
9991 13321 13322 11
9992 13321 13323 11
9993 13321 13324 12
9994 13325 13326 11
9995 13325 13327 11
9996 13325 13328 12
9997 13329 13330 11
9998 13329 13331 11
9999 13329 13332 12
10000 13333 13334 11
10001 13333 13335 11
10002 13333 13336 12
10003 13337 13338 11
10004 13337 13339 11
10005 13337 13340 12
10006 13341 13342 11
10007 13341 13343 11
10008 13341 13344 12
10009 13345 13346 11
10010 13345 13347 11
10011 13345 13348 12
10012 13349 13350 11
10013 13349 13351 11
10014 13349 13352 12
10015 13353 13354 11
10016 13353 13355 11
10017 13353 13356 12
10018 13357 13358 11
10019 13357 13359 11
10020 13357 13360 12
10021 13361 13362 11
10022 13361 13363 11
10023 13361 13364 12
10024 13365 13366 11
10025 13365 13367 11
10026 13365 13368 12
10027 13369 13370 11
10028 13369 13371 11
10029 13369 13372 12
10030 13373 13374 11
10031 13373 13375 11
10032 13373 13376 12
10033 13377 13378 11
10034 13377 13379 11
10035 13377 13380 12
10036 13381 13382 11
10037 13381 13383 11
10038 13381 13384 12
10039 13385 13386 11
10040 13385 13387 11
10041 13385 13388 12
10042 13389 13390 11
10043 13389 13391 11
10044 13389 13392 12
10045 13393 13394 11
10046 13393 13395 11
10047 13393 13396 12
10048 13397 13398 11
10049 13397 13399 11
10050 13397 13400 12
10051 13401 13402 11
10052 13401 13403 11
10053 13401 13404 12
10054 13405 13406 11
10055 13405 13407 11
10056 13405 13408 12
10057 13409 13410 11
10058 13409 13411 11
10059 13409 13412 12
10060 13413 13414 11
10061 13413 13415 11
10062 13413 13416 12
10063 13417 13418 11
10064 13417 13419 11
10065 13417 13420 12
10066 13421 13422 11
10067 13421 13423 11
10068 13421 13424 12
10069 13425 13426 11
10070 13425 13427 11
10071 13425 13428 12
10072 13429 13430 11
10073 13429 13431 11
10074 13429 13432 12
10075 13433 13434 11
10076 13433 13435 11
10077 13433 13436 12
10078 13437 13438 11
10079 13437 13439 11
10080 13437 13440 12
10081 13441 13442 11
10082 13441 13443 11
10083 13441 13444 12
10084 13445 13446 11
10085 13445 13447 11
10086 13445 13448 12
10087 13449 13450 11
10088 13449 13451 11
10089 13449 13452 12
10090 13453 13454 11
10091 13453 13455 11
10092 13453 13456 12
10093 13457 13458 11
10094 13457 13459 11
10095 13457 13460 12
10096 13461 13462 11
10097 13461 13463 11
10098 13461 13464 12
10099 13465 13466 11
10100 13465 13467 11
10101 13465 13468 12
10102 13469 13470 11
10103 13469 13471 11
10104 13469 13472 12
10105 13473 13474 11
10106 13473 13475 11
10107 13473 13476 12
10108 13477 13478 11
10109 13477 13479 11
10110 13477 13480 12
10111 13481 13482 11
10112 13481 13483 11
10113 13481 13484 12
10114 13485 13486 11
10115 13485 13487 11
10116 13485 13488 12
10117 13489 13490 11
10118 13489 13491 11
10119 13489 13492 12
10120 13493 13494 11
10121 13493 13495 11
10122 13493 13496 12
10123 13497 13498 11
10124 13497 13499 11
10125 13497 13500 12
10126 13501 13502 11
10127 13501 13503 11
10128 13501 13504 12
10129 13505 13506 11
10130 13505 13507 11
10131 13505 13508 12
10132 13509 13510 11
10133 13509 13511 11
10134 13509 13512 12
10135 13513 13514 11
10136 13513 13515 11
10137 13513 13516 12
10138 13517 13518 11
10139 13517 13519 11
10140 13517 13520 12
10141 13521 13522 11
10142 13521 13523 11
10143 13521 13524 12
10144 13525 13526 11
10145 13525 13527 11
10146 13525 13528 12
10147 13529 13530 11
10148 13529 13531 11
10149 13529 13532 12
10150 13533 13534 11
10151 13533 13535 11
10152 13533 13536 12
10153 13537 13538 11
10154 13537 13539 11
10155 13537 13540 12
10156 13541 13542 11
10157 13541 13543 11
10158 13541 13544 12
10159 13545 13546 11
10160 13545 13547 11
10161 13545 13548 12
10162 13549 13550 11
10163 13549 13551 11
10164 13549 13552 12
10165 13553 13554 11
10166 13553 13555 11
10167 13553 13556 12
10168 13557 13558 11
10169 13557 13559 11
10170 13557 13560 12
10171 13561 13562 11
10172 13561 13563 11
10173 13561 13564 12
10174 13565 13566 11
10175 13565 13567 11
10176 13565 13568 12
10177 13569 13570 11
10178 13569 13571 11
10179 13569 13572 12
10180 13573 13574 11
10181 13573 13575 11
10182 13573 13576 12
10183 13577 13578 11
10184 13577 13579 11
10185 13577 13580 12
10186 13581 13582 11
10187 13581 13583 11
10188 13581 13584 12
10189 13585 13586 11
10190 13585 13587 11
10191 13585 13588 12
10192 13589 13590 11
10193 13589 13591 11
10194 13589 13592 12
10195 13593 13594 11
10196 13593 13595 11
10197 13593 13596 12
10198 13597 13598 11
10199 13597 13599 11
10200 13597 13600 12
10201 13601 13602 11
10202 13601 13603 11
10203 13601 13604 12
10204 13605 13606 11
10205 13605 13607 11
10206 13605 13608 12
10207 13609 13610 11
10208 13609 13611 11
10209 13609 13612 12
10210 13613 13614 11
10211 13613 13615 11
10212 13613 13616 12
10213 13617 13618 11
10214 13617 13619 11
10215 13617 13620 12
10216 13621 13622 11
10217 13621 13623 11
10218 13621 13624 12
10219 13625 13626 11
10220 13625 13627 11
10221 13625 13628 12
10222 13629 13630 11
10223 13629 13631 11
10224 13629 13632 12
10225 13633 13634 11
10226 13633 13635 11
10227 13633 13636 12
10228 13637 13638 11
10229 13637 13639 11
10230 13637 13640 12
10231 13641 13642 11
10232 13641 13643 11
10233 13641 13644 12
10234 13645 13646 11
10235 13645 13647 11
10236 13645 13648 12
10237 13649 13650 11
10238 13649 13651 11
10239 13649 13652 12
10240 13653 13654 11
10241 13653 13655 11
10242 13653 13656 12
10243 13657 13658 11
10244 13657 13659 11
10245 13657 13660 12
10246 13661 13662 11
10247 13661 13663 11
10248 13661 13664 12
10249 13665 13666 11
10250 13665 13667 11
10251 13665 13668 12
10252 13669 13670 11
10253 13669 13671 11
10254 13669 13672 12
10255 13673 13674 11
10256 13673 13675 11
10257 13673 13676 12
10258 13677 13678 11
10259 13677 13679 11
10260 13677 13680 12
10261 13681 13682 11
10262 13681 13683 11
10263 13681 13684 12
10264 13685 13686 11
10265 13685 13687 11
10266 13685 13688 12
10267 13689 13690 11
10268 13689 13691 11
10269 13689 13692 12
10270 13693 13694 11
10271 13693 13695 11
10272 13693 13696 12
10273 13697 13698 11
10274 13697 13699 11
10275 13697 13700 12
10276 13701 13702 11
10277 13701 13703 11
10278 13701 13704 12
10279 13705 13706 11
10280 13705 13707 11
10281 13705 13708 12
10282 13709 13710 11
10283 13709 13711 11
10284 13709 13712 12
10285 13713 13714 11
10286 13713 13715 11
10287 13713 13716 12
10288 13717 13718 11
10289 13717 13719 11
10290 13717 13720 12
10291 13721 13722 11
10292 13721 13723 11
10293 13721 13724 12
10294 13725 13726 11
10295 13725 13727 11
10296 13725 13728 12
10297 13729 13730 11
10298 13729 13731 11
10299 13729 13732 12
10300 13733 13734 11
10301 13733 13735 11
10302 13733 13736 12
10303 13737 13738 11
10304 13737 13739 11
10305 13737 13740 12
10306 13741 13742 11
10307 13741 13743 11
10308 13741 13744 12
10309 13745 13746 11
10310 13745 13747 11
10311 13745 13748 12
10312 13749 13750 11
10313 13749 13751 11
10314 13749 13752 12
10315 13753 13754 11
10316 13753 13755 11
10317 13753 13756 12
10318 13757 13758 11
10319 13757 13759 11
10320 13757 13760 12
10321 13761 13762 11
10322 13761 13763 11
10323 13761 13764 12
10324 13765 13766 11
10325 13765 13767 11
10326 13765 13768 12
10327 13769 13770 11
10328 13769 13771 11
10329 13769 13772 12
10330 13773 13774 11
10331 13773 13775 11
10332 13773 13776 12
10333 13777 13778 11
10334 13777 13779 11
10335 13777 13780 12
10336 13781 13782 11
10337 13781 13783 11
10338 13781 13784 12
10339 13785 13786 11
10340 13785 13787 11
10341 13785 13788 12
10342 13789 13790 11
10343 13789 13791 11
10344 13789 13792 12
10345 13793 13794 11
10346 13793 13795 11
10347 13793 13796 12
10348 13797 13798 11
10349 13797 13799 11
10350 13797 13800 12
10351 13801 13802 11
10352 13801 13803 11
10353 13801 13804 12
10354 13805 13806 11
10355 13805 13807 11
10356 13805 13808 12
10357 13809 13810 11
10358 13809 13811 11
10359 13809 13812 12
10360 13813 13814 11
10361 13813 13815 11
10362 13813 13816 12
10363 13817 13818 11
10364 13817 13819 11
10365 13817 13820 12
10366 13821 13822 11
10367 13821 13823 11
10368 13821 13824 12
10369 13825 13826 11
10370 13825 13827 11
10371 13825 13828 12
10372 13829 13830 11
10373 13829 13831 11
10374 13829 13832 12
10375 13833 13834 11
10376 13833 13835 11
10377 13833 13836 12
10378 13837 13838 11
10379 13837 13839 11
10380 13837 13840 12
10381 13841 13842 11
10382 13841 13843 11
10383 13841 13844 12
10384 13845 13846 11
10385 13845 13847 11
10386 13845 13848 12
10387 13849 13850 11
10388 13849 13851 11
10389 13849 13852 12
10390 13853 13854 11
10391 13853 13855 11
10392 13853 13856 12
10393 13857 13858 11
10394 13857 13859 11
10395 13857 13860 12
10396 13861 13862 11
10397 13861 13863 11
10398 13861 13864 12
10399 13865 13866 11
10400 13865 13867 11
10401 13865 13868 12
10402 13869 13870 11
10403 13869 13871 11
10404 13869 13872 12
10405 13873 13874 11
10406 13873 13875 11
10407 13873 13876 12
10408 13877 13878 11
10409 13877 13879 11
10410 13877 13880 12
10411 13881 13882 11
10412 13881 13883 11
10413 13881 13884 12
10414 13885 13886 11
10415 13885 13887 11
10416 13885 13888 12
10417 13889 13890 11
10418 13889 13891 11
10419 13889 13892 12
10420 13893 13894 11
10421 13893 13895 11
10422 13893 13896 12
10423 13897 13898 11
10424 13897 13899 11
10425 13897 13900 12
10426 13901 13902 11
10427 13901 13903 11
10428 13901 13904 12
10429 13905 13906 11
10430 13905 13907 11
10431 13905 13908 12
10432 13909 13910 11
10433 13909 13911 11
10434 13909 13912 12
10435 13913 13914 11
10436 13913 13915 11
10437 13913 13916 12
10438 13917 13918 11
10439 13917 13919 11
10440 13917 13920 12
10441 13921 13922 11
10442 13921 13923 11
10443 13921 13924 12
10444 13925 13926 11
10445 13925 13927 11
10446 13925 13928 12
10447 13929 13930 11
10448 13929 13931 11
10449 13929 13932 12
10450 13933 13934 11
10451 13933 13935 11
10452 13933 13936 12
10453 13937 13938 11
10454 13937 13939 11
10455 13937 13940 12
10456 13941 13942 11
10457 13941 13943 11
10458 13941 13944 12
10459 13945 13946 11
10460 13945 13947 11
10461 13945 13948 12
10462 13949 13950 11
10463 13949 13951 11
10464 13949 13952 12
10465 13953 13954 11
10466 13953 13955 11
10467 13953 13956 12
10468 13957 13958 11
10469 13957 13959 11
10470 13957 13960 12
10471 13961 13962 11
10472 13961 13963 11
10473 13961 13964 12
10474 13965 13966 11
10475 13965 13967 11
10476 13965 13968 12
10477 13969 13970 11
10478 13969 13971 11
10479 13969 13972 12
10480 13973 13974 11
10481 13973 13975 11
10482 13973 13976 12
10483 13977 13978 11
10484 13977 13979 11
10485 13977 13980 12
10486 13981 13982 11
10487 13981 13983 11
10488 13981 13984 12
10489 13985 13986 11
10490 13985 13987 11
10491 13985 13988 12
10492 13989 13990 11
10493 13989 13991 11
10494 13989 13992 12
10495 13993 13994 11
10496 13993 13995 11
10497 13993 13996 12
10498 13997 13998 11
10499 13997 13999 11
10500 13997 14000 12
10501 14001 14002 11
10502 14001 14003 11
10503 14001 14004 12
10504 14005 14006 11
10505 14005 14007 11
10506 14005 14008 12
10507 14009 14010 11
10508 14009 14011 11
10509 14009 14012 12
10510 14013 14014 11
10511 14013 14015 11
10512 14013 14016 12
10513 14017 14018 11
10514 14017 14019 11
10515 14017 14020 12
10516 14021 14022 11
10517 14021 14023 11
10518 14021 14024 12
10519 14025 14026 11
10520 14025 14027 11
10521 14025 14028 12
10522 14029 14030 11
10523 14029 14031 11
10524 14029 14032 12
10525 14033 14034 11
10526 14033 14035 11
10527 14033 14036 12
10528 14037 14038 11
10529 14037 14039 11
10530 14037 14040 12
10531 14041 14042 11
10532 14041 14043 11
10533 14041 14044 12
10534 14045 14046 11
10535 14045 14047 11
10536 14045 14048 12
10537 14049 14050 11
10538 14049 14051 11
10539 14049 14052 12
10540 14053 14054 11
10541 14053 14055 11
10542 14053 14056 12
10543 14057 14058 11
10544 14057 14059 11
10545 14057 14060 12
10546 14061 14062 11
10547 14061 14063 11
10548 14061 14064 12
10549 14065 14066 11
10550 14065 14067 11
10551 14065 14068 12
10552 14069 14070 11
10553 14069 14071 11
10554 14069 14072 12
10555 14073 14074 11
10556 14073 14075 11
10557 14073 14076 12
10558 14077 14078 11
10559 14077 14079 11
10560 14077 14080 12
10561 14081 14082 11
10562 14081 14083 11
10563 14081 14084 12
10564 14085 14086 11
10565 14085 14087 11
10566 14085 14088 12
10567 14089 14090 11
10568 14089 14091 11
10569 14089 14092 12
10570 14093 14094 11
10571 14093 14095 11
10572 14093 14096 12
10573 14097 14098 11
10574 14097 14099 11
10575 14097 14100 12
10576 14101 14102 11
10577 14101 14103 11
10578 14101 14104 12
10579 14105 14106 11
10580 14105 14107 11
10581 14105 14108 12
10582 14109 14110 11
10583 14109 14111 11
10584 14109 14112 12
10585 14113 14114 11
10586 14113 14115 11
10587 14113 14116 12
10588 14117 14118 11
10589 14117 14119 11
10590 14117 14120 12
10591 14121 14122 11
10592 14121 14123 11
10593 14121 14124 12
10594 14125 14126 11
10595 14125 14127 11
10596 14125 14128 12
10597 14129 14130 11
10598 14129 14131 11
10599 14129 14132 12
10600 14133 14134 11
10601 14133 14135 11
10602 14133 14136 12
10603 14137 14138 11
10604 14137 14139 11
10605 14137 14140 12
10606 14141 14142 11
10607 14141 14143 11
10608 14141 14144 12
10609 14145 14146 11
10610 14145 14147 11
10611 14145 14148 12
10612 14149 14150 11
10613 14149 14151 11
10614 14149 14152 12
10615 14153 14154 11
10616 14153 14155 11
10617 14153 14156 12
10618 14157 14158 11
10619 14157 14159 11
10620 14157 14160 12
10621 14161 14162 11
10622 14161 14163 11
10623 14161 14164 12
10624 14165 14166 11
10625 14165 14167 11
10626 14165 14168 12
10627 14169 14170 11
10628 14169 14171 11
10629 14169 14172 12
10630 14173 14174 11
10631 14173 14175 11
10632 14173 14176 12
10633 14177 14178 11
10634 14177 14179 11
10635 14177 14180 12
10636 14181 14182 11
10637 14181 14183 11
10638 14181 14184 12
10639 14185 14186 11
10640 14185 14187 11
10641 14185 14188 12
10642 14189 14190 11
10643 14189 14191 11
10644 14189 14192 12
10645 14193 14194 11
10646 14193 14195 11
10647 14193 14196 12
10648 14197 14198 11
10649 14197 14199 11
10650 14197 14200 12
10651 14201 14202 11
10652 14201 14203 11
10653 14201 14204 12
10654 14205 14206 11
10655 14205 14207 11
10656 14205 14208 12
10657 14209 14210 11
10658 14209 14211 11
10659 14209 14212 12
10660 14213 14214 11
10661 14213 14215 11
10662 14213 14216 12
10663 14217 14218 11
10664 14217 14219 11
10665 14217 14220 12
10666 14221 14222 11
10667 14221 14223 11
10668 14221 14224 12
10669 14225 14226 11
10670 14225 14227 11
10671 14225 14228 12
10672 14229 14230 11
10673 14229 14231 11
10674 14229 14232 12
10675 14233 14234 11
10676 14233 14235 11
10677 14233 14236 12
10678 14237 14238 11
10679 14237 14239 11
10680 14237 14240 12
10681 14241 14242 11
10682 14241 14243 11
10683 14241 14244 12
10684 14245 14246 11
10685 14245 14247 11
10686 14245 14248 12
10687 14249 14250 11
10688 14249 14251 11
10689 14249 14252 12
10690 14253 14254 11
10691 14253 14255 11
10692 14253 14256 12
10693 14257 14258 11
10694 14257 14259 11
10695 14257 14260 12
10696 14261 14262 11
10697 14261 14263 11
10698 14261 14264 12
10699 14265 14266 11
10700 14265 14267 11
10701 14265 14268 12
10702 14269 14270 11
10703 14269 14271 11
10704 14269 14272 12
10705 14273 14274 11
10706 14273 14275 11
10707 14273 14276 12
10708 14277 14278 11
10709 14277 14279 11
10710 14277 14280 12
10711 14281 14282 11
10712 14281 14283 11
10713 14281 14284 12
10714 14285 14286 11
10715 14285 14287 11
10716 14285 14288 12
10717 14289 14290 11
10718 14289 14291 11
10719 14289 14292 12
10720 14293 14294 11
10721 14293 14295 11
10722 14293 14296 12
10723 14297 14298 11
10724 14297 14299 11
10725 14297 14300 12
10726 14301 14302 11
10727 14301 14303 11
10728 14301 14304 12
10729 14305 14306 11
10730 14305 14307 11
10731 14305 14308 12
10732 14309 14310 11
10733 14309 14311 11
10734 14309 14312 12
10735 14313 14314 11
10736 14313 14315 11
10737 14313 14316 12
10738 14317 14318 11
10739 14317 14319 11
10740 14317 14320 12
10741 14321 14322 11
10742 14321 14323 11
10743 14321 14324 12
10744 14325 14326 11
10745 14325 14327 11
10746 14325 14328 12
10747 14329 14330 11
10748 14329 14331 11
10749 14329 14332 12
10750 14333 14334 11
10751 14333 14335 11
10752 14333 14336 12
10753 14337 14338 11
10754 14337 14339 11
10755 14337 14340 12
10756 14341 14342 11
10757 14341 14343 11
10758 14341 14344 12
10759 14345 14346 11
10760 14345 14347 11
10761 14345 14348 12
10762 14349 14350 11
10763 14349 14351 11
10764 14349 14352 12
10765 14353 14354 11
10766 14353 14355 11
10767 14353 14356 12
10768 14357 14358 11
10769 14357 14359 11
10770 14357 14360 12
10771 14361 14362 11
10772 14361 14363 11
10773 14361 14364 12
10774 14365 14366 11
10775 14365 14367 11
10776 14365 14368 12
10777 14369 14370 11
10778 14369 14371 11
10779 14369 14372 12
10780 14373 14374 11
10781 14373 14375 11
10782 14373 14376 12
10783 14377 14378 11
10784 14377 14379 11
10785 14377 14380 12
10786 14381 14382 11
10787 14381 14383 11
10788 14381 14384 12
10789 14385 14386 11
10790 14385 14387 11
10791 14385 14388 12
10792 14389 14390 11
10793 14389 14391 11
10794 14389 14392 12
10795 14393 14394 11
10796 14393 14395 11
10797 14393 14396 12
10798 14397 14398 11
10799 14397 14399 11
10800 14397 14400 12
10801 14401 14402 11
10802 14401 14403 11
10803 14401 14404 12
10804 14405 14406 11
10805 14405 14407 11
10806 14405 14408 12
10807 14409 14410 11
10808 14409 14411 11
10809 14409 14412 12
10810 14413 14414 11
10811 14413 14415 11
10812 14413 14416 12
10813 14417 14418 11
10814 14417 14419 11
10815 14417 14420 12
10816 14421 14422 11
10817 14421 14423 11
10818 14421 14424 12
10819 14425 14426 11
10820 14425 14427 11
10821 14425 14428 12
10822 14429 14430 11
10823 14429 14431 11
10824 14429 14432 12
10825 14433 14434 11
10826 14433 14435 11
10827 14433 14436 12
10828 14437 14438 11
10829 14437 14439 11
10830 14437 14440 12
10831 14441 14442 11
10832 14441 14443 11
10833 14441 14444 12
10834 14445 14446 11
10835 14445 14447 11
10836 14445 14448 12
10837 14449 14450 11
10838 14449 14451 11
10839 14449 14452 12
10840 14453 14454 11
10841 14453 14455 11
10842 14453 14456 12
10843 14457 14458 11
10844 14457 14459 11
10845 14457 14460 12
10846 14461 14462 11
10847 14461 14463 11
10848 14461 14464 12
10849 14465 14466 11
10850 14465 14467 11
10851 14465 14468 12
10852 14469 14470 11
10853 14469 14471 11
10854 14469 14472 12
10855 14473 14474 11
10856 14473 14475 11
10857 14473 14476 12
10858 14477 14478 11
10859 14477 14479 11
10860 14477 14480 12
10861 14481 14482 11
10862 14481 14483 11
10863 14481 14484 12
10864 14485 14486 11
10865 14485 14487 11
10866 14485 14488 12
10867 14489 14490 11
10868 14489 14491 11
10869 14489 14492 12
10870 14493 14494 11
10871 14493 14495 11
10872 14493 14496 12
10873 14497 14498 11
10874 14497 14499 11
10875 14497 14500 12
10876 14501 14502 11
10877 14501 14503 11
10878 14501 14504 12
10879 14505 14506 11
10880 14505 14507 11
10881 14505 14508 12
10882 14509 14510 11
10883 14509 14511 11
10884 14509 14512 12
10885 14513 14514 11
10886 14513 14515 11
10887 14513 14516 12
10888 14517 14518 11
10889 14517 14519 11
10890 14517 14520 12
10891 14521 14522 11
10892 14521 14523 11
10893 14521 14524 12
10894 14525 14526 11
10895 14525 14527 11
10896 14525 14528 12
10897 14529 14530 11
10898 14529 14531 11
10899 14529 14532 12
10900 14533 14534 11
10901 14533 14535 11
10902 14533 14536 12
10903 14537 14538 11
10904 14537 14539 11
10905 14537 14540 12
10906 14541 14542 11
10907 14541 14543 11
10908 14541 14544 12
10909 14545 14546 11
10910 14545 14547 11
10911 14545 14548 12
10912 14549 14550 11
10913 14549 14551 11
10914 14549 14552 12
10915 14553 14554 11
10916 14553 14555 11
10917 14553 14556 12
10918 14557 14558 11
10919 14557 14559 11
10920 14557 14560 12
10921 14561 14562 11
10922 14561 14563 11
10923 14561 14564 12
10924 14565 14566 11
10925 14565 14567 11
10926 14565 14568 12
10927 14569 14570 11
10928 14569 14571 11
10929 14569 14572 12
10930 14573 14574 11
10931 14573 14575 11
10932 14573 14576 12
10933 14577 14578 11
10934 14577 14579 11
10935 14577 14580 12
10936 14581 14582 11
10937 14581 14583 11
10938 14581 14584 12
10939 14585 14586 11
10940 14585 14587 11
10941 14585 14588 12
10942 14589 14590 11
10943 14589 14591 11
10944 14589 14592 12
10945 14593 14594 11
10946 14593 14595 11
10947 14593 14596 12
10948 14597 14598 11
10949 14597 14599 11
10950 14597 14600 12
10951 14601 14602 11
10952 14601 14603 11
10953 14601 14604 12
10954 14605 14606 11
10955 14605 14607 11
10956 14605 14608 12
10957 14609 14610 11
10958 14609 14611 11
10959 14609 14612 12
10960 14613 14614 11
10961 14613 14615 11
10962 14613 14616 12
10963 14617 14618 11
10964 14617 14619 11
10965 14617 14620 12
10966 14621 14622 11
10967 14621 14623 11
10968 14621 14624 12
10969 14625 14626 11
10970 14625 14627 11
10971 14625 14628 12
10972 14629 14630 11
10973 14629 14631 11
10974 14629 14632 12
10975 14633 14634 11
10976 14633 14635 11
10977 14633 14636 12
10978 14637 14638 11
10979 14637 14639 11
10980 14637 14640 12
10981 14641 14642 11
10982 14641 14643 11
10983 14641 14644 12
10984 14645 14646 11
10985 14645 14647 11
10986 14645 14648 12
10987 14649 14650 11
10988 14649 14651 11
10989 14649 14652 12
10990 14653 14654 11
10991 14653 14655 11
10992 14653 14656 12
10993 14657 14658 11
10994 14657 14659 11
10995 14657 14660 12
10996 14661 14662 11
10997 14661 14663 11
10998 14661 14664 12
10999 14665 14666 11
11000 14665 14667 11
11001 14665 14668 12
11002 14669 14670 11
11003 14669 14671 11
11004 14669 14672 12
11005 14673 14674 11
11006 14673 14675 11
11007 14673 14676 12
11008 14677 14678 11
11009 14677 14679 11
11010 14677 14680 12
11011 14681 14682 11
11012 14681 14683 11
11013 14681 14684 12
11014 14685 14686 11
11015 14685 14687 11
11016 14685 14688 12
11017 14689 14690 11
11018 14689 14691 11
11019 14689 14692 12
11020 14693 14694 11
11021 14693 14695 11
11022 14693 14696 12
11023 14697 14698 11
11024 14697 14699 11
11025 14697 14700 12
11026 14701 14702 11
11027 14701 14703 11
11028 14701 14704 12
11029 14705 14706 11
11030 14705 14707 11
11031 14705 14708 12
11032 14709 14710 11
11033 14709 14711 11
11034 14709 14712 12
11035 14713 14714 11
11036 14713 14715 11
11037 14713 14716 12
11038 14717 14718 11
11039 14717 14719 11
11040 14717 14720 12
11041 14721 14722 11
11042 14721 14723 11
11043 14721 14724 12
11044 14725 14726 11
11045 14725 14727 11
11046 14725 14728 12
11047 14729 14730 11
11048 14729 14731 11
11049 14729 14732 12
11050 14733 14734 11
11051 14733 14735 11
11052 14733 14736 12
11053 14737 14738 11
11054 14737 14739 11
11055 14737 14740 12
11056 14741 14742 11
11057 14741 14743 11
11058 14741 14744 12
11059 14745 14746 11
11060 14745 14747 11
11061 14745 14748 12
11062 14749 14750 11
11063 14749 14751 11
11064 14749 14752 12
11065 14753 14754 11
11066 14753 14755 11
11067 14753 14756 12
11068 14757 14758 11
11069 14757 14759 11
11070 14757 14760 12
11071 14761 14762 11
11072 14761 14763 11
11073 14761 14764 12
11074 14765 14766 11
11075 14765 14767 11
11076 14765 14768 12
11077 14769 14770 11
11078 14769 14771 11
11079 14769 14772 12
11080 14773 14774 11
11081 14773 14775 11
11082 14773 14776 12
11083 14777 14778 11
11084 14777 14779 11
11085 14777 14780 12
11086 14781 14782 11
11087 14781 14783 11
11088 14781 14784 12
11089 14785 14786 11
11090 14785 14787 11
11091 14785 14788 12
11092 14789 14790 11
11093 14789 14791 11
11094 14789 14792 12
11095 14793 14794 11
11096 14793 14795 11
11097 14793 14796 12
11098 14797 14798 11
11099 14797 14799 11
11100 14797 14800 12
11101 14801 14802 11
11102 14801 14803 11
11103 14801 14804 12
11104 14805 14806 11
11105 14805 14807 11
11106 14805 14808 12
11107 14809 14810 11
11108 14809 14811 11
11109 14809 14812 12
11110 14813 14814 11
11111 14813 14815 11
11112 14813 14816 12
11113 14817 14818 11
11114 14817 14819 11
11115 14817 14820 12
11116 14821 14822 11
11117 14821 14823 11
11118 14821 14824 12
11119 14825 14826 11
11120 14825 14827 11
11121 14825 14828 12
11122 14829 14830 11
11123 14829 14831 11
11124 14829 14832 12
11125 14833 14834 11
11126 14833 14835 11
11127 14833 14836 12
11128 14837 14838 11
11129 14837 14839 11
11130 14837 14840 12
11131 14841 14842 11
11132 14841 14843 11
11133 14841 14844 12
11134 14845 14846 11
11135 14845 14847 11
11136 14845 14848 12
11137 14849 14850 11
11138 14849 14851 11
11139 14849 14852 12
11140 14853 14854 11
11141 14853 14855 11
11142 14853 14856 12
11143 14857 14858 11
11144 14857 14859 11
11145 14857 14860 12
11146 14861 14862 11
11147 14861 14863 11
11148 14861 14864 12
11149 14865 14866 11
11150 14865 14867 11
11151 14865 14868 12
11152 14869 14870 11
11153 14869 14871 11
11154 14869 14872 12
11155 14873 14874 11
11156 14873 14875 11
11157 14873 14876 12
11158 14877 14878 11
11159 14877 14879 11
11160 14877 14880 12
11161 14881 14882 11
11162 14881 14883 11
11163 14881 14884 12
11164 14885 14886 11
11165 14885 14887 11
11166 14885 14888 12
11167 14889 14890 11
11168 14889 14891 11
11169 14889 14892 12
11170 14893 14894 11
11171 14893 14895 11
11172 14893 14896 12
11173 14897 14898 11
11174 14897 14899 11
11175 14897 14900 12
11176 14901 14902 11
11177 14901 14903 11
11178 14901 14904 12
11179 14905 14906 11
11180 14905 14907 11
11181 14905 14908 12
11182 14909 14910 11
11183 14909 14911 11
11184 14909 14912 12
11185 14913 14914 11
11186 14913 14915 11
11187 14913 14916 12
11188 14917 14918 11
11189 14917 14919 11
11190 14917 14920 12
11191 14921 14922 11
11192 14921 14923 11
11193 14921 14924 12
11194 14925 14926 11
11195 14925 14927 11
11196 14925 14928 12
11197 14929 14930 11
11198 14929 14931 11
11199 14929 14932 12
11200 14933 14934 11
11201 14933 14935 11
11202 14933 14936 12
11203 14937 14938 11
11204 14937 14939 11
11205 14937 14940 12
11206 14941 14942 11
11207 14941 14943 11
11208 14941 14944 12
11209 14945 14946 11
11210 14945 14947 11
11211 14945 14948 12
11212 14949 14950 11
11213 14949 14951 11
11214 14949 14952 12
11215 14953 14954 11
11216 14953 14955 11
11217 14953 14956 12
11218 14957 14958 11
11219 14957 14959 11
11220 14957 14960 12
11221 14961 14962 11
11222 14961 14963 11
11223 14961 14964 12
11224 14965 14966 11
11225 14965 14967 11
11226 14965 14968 12
11227 14969 14970 11
11228 14969 14971 11
11229 14969 14972 12
11230 14973 14974 11
11231 14973 14975 11
11232 14973 14976 12
11233 14977 14978 11
11234 14977 14979 11
11235 14977 14980 12
11236 14981 14982 11
11237 14981 14983 11
11238 14981 14984 12
11239 14985 14986 11
11240 14985 14987 11
11241 14985 14988 12
11242 14989 14990 11
11243 14989 14991 11
11244 14989 14992 12
11245 14993 14994 11
11246 14993 14995 11
11247 14993 14996 12
11248 14997 14998 11
11249 14997 14999 11
11250 14997 15000 12
11251 15001 15002 11
11252 15001 15003 11
11253 15001 15004 12
11254 15005 15006 11
11255 15005 15007 11
11256 15005 15008 12
11257 15009 15010 11
11258 15009 15011 11
11259 15009 15012 12
11260 15013 15014 11
11261 15013 15015 11
11262 15013 15016 12
11263 15017 15018 11
11264 15017 15019 11
11265 15017 15020 12
11266 15021 15022 11
11267 15021 15023 11
11268 15021 15024 12
11269 15025 15026 11
11270 15025 15027 11
11271 15025 15028 12
11272 15029 15030 11
11273 15029 15031 11
11274 15029 15032 12
11275 15033 15034 11
11276 15033 15035 11
11277 15033 15036 12
11278 15037 15038 11
11279 15037 15039 11
11280 15037 15040 12
11281 15041 15042 11
11282 15041 15043 11
11283 15041 15044 12
11284 15045 15046 11
11285 15045 15047 11
11286 15045 15048 12
11287 15049 15050 11
11288 15049 15051 11
11289 15049 15052 12
11290 15053 15054 11
11291 15053 15055 11
11292 15053 15056 12
11293 15057 15058 11
11294 15057 15059 11
11295 15057 15060 12
11296 15061 15062 11
11297 15061 15063 11
11298 15061 15064 12
11299 15065 15066 11
11300 15065 15067 11
11301 15065 15068 12
11302 15069 15070 11
11303 15069 15071 11
11304 15069 15072 12
11305 15073 15074 11
11306 15073 15075 11
11307 15073 15076 12
11308 15077 15078 11
11309 15077 15079 11
11310 15077 15080 12
11311 15081 15082 11
11312 15081 15083 11
11313 15081 15084 12
11314 15085 15086 11
11315 15085 15087 11
11316 15085 15088 12
11317 15089 15090 11
11318 15089 15091 11
11319 15089 15092 12
11320 15093 15094 11
11321 15093 15095 11
11322 15093 15096 12
11323 15097 15098 11
11324 15097 15099 11
11325 15097 15100 12
11326 15101 15102 11
11327 15101 15103 11
11328 15101 15104 12
11329 15105 15106 11
11330 15105 15107 11
11331 15105 15108 12
11332 15109 15110 11
11333 15109 15111 11
11334 15109 15112 12
11335 15113 15114 11
11336 15113 15115 11
11337 15113 15116 12
11338 15117 15118 11
11339 15117 15119 11
11340 15117 15120 12
11341 15121 15122 11
11342 15121 15123 11
11343 15121 15124 12
11344 15125 15126 11
11345 15125 15127 11
11346 15125 15128 12
11347 15129 15130 11
11348 15129 15131 11
11349 15129 15132 12
11350 15133 15134 11
11351 15133 15135 11
11352 15133 15136 12
11353 15137 15138 11
11354 15137 15139 11
11355 15137 15140 12
11356 15141 15142 11
11357 15141 15143 11
11358 15141 15144 12
11359 15145 15146 11
11360 15145 15147 11
11361 15145 15148 12
11362 15149 15150 11
11363 15149 15151 11
11364 15149 15152 12
11365 15153 15154 11
11366 15153 15155 11
11367 15153 15156 12
11368 15157 15158 11
11369 15157 15159 11
11370 15157 15160 12
11371 15161 15162 11
11372 15161 15163 11
11373 15161 15164 12
11374 15165 15166 11
11375 15165 15167 11
11376 15165 15168 12
11377 15169 15170 11
11378 15169 15171 11
11379 15169 15172 12
11380 15173 15174 11
11381 15173 15175 11
11382 15173 15176 12
11383 15177 15178 11
11384 15177 15179 11
11385 15177 15180 12
11386 15181 15182 11
11387 15181 15183 11
11388 15181 15184 12
11389 15185 15186 11
11390 15185 15187 11
11391 15185 15188 12
11392 15189 15190 11
11393 15189 15191 11
11394 15189 15192 12
11395 15193 15194 11
11396 15193 15195 11
11397 15193 15196 12
11398 15197 15198 11
11399 15197 15199 11
11400 15197 15200 12
11401 15201 15202 11
11402 15201 15203 11
11403 15201 15204 12
11404 15205 15206 11
11405 15205 15207 11
11406 15205 15208 12
11407 15209 15210 11
11408 15209 15211 11
11409 15209 15212 12
11410 15213 15214 11
11411 15213 15215 11
11412 15213 15216 12
11413 15217 15218 11
11414 15217 15219 11
11415 15217 15220 12
11416 15221 15222 11
11417 15221 15223 11
11418 15221 15224 12
11419 15225 15226 11
11420 15225 15227 11
11421 15225 15228 12
11422 15229 15230 11
11423 15229 15231 11
11424 15229 15232 12
11425 15233 15234 11
11426 15233 15235 11
11427 15233 15236 12
11428 15237 15238 11
11429 15237 15239 11
11430 15237 15240 12
11431 15241 15242 11
11432 15241 15243 11
11433 15241 15244 12
11434 15245 15246 11
11435 15245 15247 11
11436 15245 15248 12
11437 15249 15250 11
11438 15249 15251 11
11439 15249 15252 12
11440 15253 15254 11
11441 15253 15255 11
11442 15253 15256 12
11443 15257 15258 11
11444 15257 15259 11
11445 15257 15260 12
11446 15261 15262 11
11447 15261 15263 11
11448 15261 15264 12
11449 15265 15266 11
11450 15265 15267 11
11451 15265 15268 12
11452 15269 15270 11
11453 15269 15271 11
11454 15269 15272 12
11455 15273 15274 11
11456 15273 15275 11
11457 15273 15276 12
11458 15277 15278 11
11459 15277 15279 11
11460 15277 15280 12
11461 15281 15282 11
11462 15281 15283 11
11463 15281 15284 12
11464 15285 15286 11
11465 15285 15287 11
11466 15285 15288 12
11467 15289 15290 11
11468 15289 15291 11
11469 15289 15292 12
11470 15293 15294 11
11471 15293 15295 11
11472 15293 15296 12
11473 15297 15298 11
11474 15297 15299 11
11475 15297 15300 12
11476 15301 15302 11
11477 15301 15303 11
11478 15301 15304 12
11479 15305 15306 11
11480 15305 15307 11
11481 15305 15308 12
11482 15309 15310 11
11483 15309 15311 11
11484 15309 15312 12
11485 15313 15314 11
11486 15313 15315 11
11487 15313 15316 12
11488 15317 15318 11
11489 15317 15319 11
11490 15317 15320 12
11491 15321 15322 11
11492 15321 15323 11
11493 15321 15324 12
11494 15325 15326 11
11495 15325 15327 11
11496 15325 15328 12
11497 15329 15330 11
11498 15329 15331 11
11499 15329 15332 12
11500 15333 15334 11
11501 15333 15335 11
11502 15333 15336 12
11503 15337 15338 11
11504 15337 15339 11
11505 15337 15340 12
11506 15341 15342 11
11507 15341 15343 11
11508 15341 15344 12
11509 15345 15346 11
11510 15345 15347 11
11511 15345 15348 12
11512 15349 15350 11
11513 15349 15351 11
11514 15349 15352 12
11515 15353 15354 11
11516 15353 15355 11
11517 15353 15356 12
11518 15357 15358 11
11519 15357 15359 11
11520 15357 15360 12
11521 15361 15362 11
11522 15361 15363 11
11523 15361 15364 12
11524 15365 15366 11
11525 15365 15367 11
11526 15365 15368 12
11527 15369 15370 11
11528 15369 15371 11
11529 15369 15372 12
11530 15373 15374 11
11531 15373 15375 11
11532 15373 15376 12
11533 15377 15378 11
11534 15377 15379 11
11535 15377 15380 12
11536 15381 15382 11
11537 15381 15383 11
11538 15381 15384 12
11539 15385 15386 11
11540 15385 15387 11
11541 15385 15388 12
11542 15389 15390 11
11543 15389 15391 11
11544 15389 15392 12
11545 15393 15394 11
11546 15393 15395 11
11547 15393 15396 12
11548 15397 15398 11
11549 15397 15399 11
11550 15397 15400 12
11551 15401 15402 11
11552 15401 15403 11
11553 15401 15404 12
11554 15405 15406 11
11555 15405 15407 11
11556 15405 15408 12
11557 15409 15410 11
11558 15409 15411 11
11559 15409 15412 12
11560 15413 15414 11
11561 15413 15415 11
11562 15413 15416 12
11563 15417 15418 11
11564 15417 15419 11
11565 15417 15420 12
11566 15421 15422 11
11567 15421 15423 11
11568 15421 15424 12
11569 15425 15426 11
11570 15425 15427 11
11571 15425 15428 12
11572 15429 15430 11
11573 15429 15431 11
11574 15429 15432 12
11575 15433 15434 11
11576 15433 15435 11
11577 15433 15436 12
11578 15437 15438 11
11579 15437 15439 11
11580 15437 15440 12
11581 15441 15442 11
11582 15441 15443 11
11583 15441 15444 12
11584 15445 15446 11
11585 15445 15447 11
11586 15445 15448 12
11587 15449 15450 11
11588 15449 15451 11
11589 15449 15452 12
11590 15453 15454 11
11591 15453 15455 11
11592 15453 15456 12
11593 15457 15458 11
11594 15457 15459 11
11595 15457 15460 12
11596 15461 15462 11
11597 15461 15463 11
11598 15461 15464 12
11599 15465 15466 11
11600 15465 15467 11
11601 15465 15468 12
11602 15469 15470 11
11603 15469 15471 11
11604 15469 15472 12
11605 15473 15474 11
11606 15473 15475 11
11607 15473 15476 12
11608 15477 15478 11
11609 15477 15479 11
11610 15477 15480 12
11611 15481 15482 11
11612 15481 15483 11
11613 15481 15484 12
11614 15485 15486 11
11615 15485 15487 11
11616 15485 15488 12
11617 15489 15490 11
11618 15489 15491 11
11619 15489 15492 12
11620 15493 15494 11
11621 15493 15495 11
11622 15493 15496 12
11623 15497 15498 11
11624 15497 15499 11
11625 15497 15500 12
11626 15501 15502 11
11627 15501 15503 11
11628 15501 15504 12
11629 15505 15506 11
11630 15505 15507 11
11631 15505 15508 12
11632 15509 15510 11
11633 15509 15511 11
11634 15509 15512 12
11635 15513 15514 11
11636 15513 15515 11
11637 15513 15516 12
11638 15517 15518 11
11639 15517 15519 11
11640 15517 15520 12
11641 15521 15522 11
11642 15521 15523 11
11643 15521 15524 12
11644 15525 15526 11
11645 15525 15527 11
11646 15525 15528 12
11647 15529 15530 11
11648 15529 15531 11
11649 15529 15532 12
11650 15533 15534 11
11651 15533 15535 11
11652 15533 15536 12
11653 15537 15538 11
11654 15537 15539 11
11655 15537 15540 12
11656 15541 15542 11
11657 15541 15543 11
11658 15541 15544 12
11659 15545 15546 11
11660 15545 15547 11
11661 15545 15548 12
11662 15549 15550 11
11663 15549 15551 11
11664 15549 15552 12
11665 15553 15554 11
11666 15553 15555 11
11667 15553 15556 12
11668 15557 15558 11
11669 15557 15559 11
11670 15557 15560 12
11671 15561 15562 11
11672 15561 15563 11
11673 15561 15564 12
11674 15565 15566 11
11675 15565 15567 11
11676 15565 15568 12
11677 15569 15570 11
11678 15569 15571 11
11679 15569 15572 12
11680 15573 15574 11
11681 15573 15575 11
11682 15573 15576 12
11683 15577 15578 11
11684 15577 15579 11
11685 15577 15580 12
11686 15581 15582 11
11687 15581 15583 11
11688 15581 15584 12
11689 15585 15586 11
11690 15585 15587 11
11691 15585 15588 12
11692 15589 15590 11
11693 15589 15591 11
11694 15589 15592 12
11695 15593 15594 11
11696 15593 15595 11
11697 15593 15596 12
11698 15597 15598 11
11699 15597 15599 11
11700 15597 15600 12
11701 15601 15602 11
11702 15601 15603 11
11703 15601 15604 12
11704 15605 15606 11
11705 15605 15607 11
11706 15605 15608 12
11707 15609 15610 11
11708 15609 15611 11
11709 15609 15612 12
11710 15613 15614 11
11711 15613 15615 11
11712 15613 15616 12
11713 15617 15618 11
11714 15617 15619 11
11715 15617 15620 12
11716 15621 15622 11
11717 15621 15623 11
11718 15621 15624 12
11719 15625 15626 11
11720 15625 15627 11
11721 15625 15628 12
11722 15629 15630 11
11723 15629 15631 11
11724 15629 15632 12
11725 15633 15634 11
11726 15633 15635 11
11727 15633 15636 12
11728 15637 15638 11
11729 15637 15639 11
11730 15637 15640 12
11731 15641 15642 11
11732 15641 15643 11
11733 15641 15644 12
11734 15645 15646 11
11735 15645 15647 11
11736 15645 15648 12
11737 15649 15650 11
11738 15649 15651 11
11739 15649 15652 12
11740 15653 15654 11
11741 15653 15655 11
11742 15653 15656 12
11743 15657 15658 11
11744 15657 15659 11
11745 15657 15660 12
11746 15661 15662 11
11747 15661 15663 11
11748 15661 15664 12
11749 15665 15666 11
11750 15665 15667 11
11751 15665 15668 12
11752 15669 15670 11
11753 15669 15671 11
11754 15669 15672 12
11755 15673 15674 11
11756 15673 15675 11
11757 15673 15676 12
11758 15677 15678 11
11759 15677 15679 11
11760 15677 15680 12
11761 15681 15682 11
11762 15681 15683 11
11763 15681 15684 12
11764 15685 15686 11
11765 15685 15687 11
11766 15685 15688 12
11767 15689 15690 11
11768 15689 15691 11
11769 15689 15692 12
11770 15693 15694 11
11771 15693 15695 11
11772 15693 15696 12
11773 15697 15698 11
11774 15697 15699 11
11775 15697 15700 12
11776 15701 15702 11
11777 15701 15703 11
11778 15701 15704 12
11779 15705 15706 11
11780 15705 15707 11
11781 15705 15708 12
11782 15709 15710 11
11783 15709 15711 11
11784 15709 15712 12
11785 15713 15714 11
11786 15713 15715 11
11787 15713 15716 12
11788 15717 15718 11
11789 15717 15719 11
11790 15717 15720 12
11791 15721 15722 11
11792 15721 15723 11
11793 15721 15724 12
11794 15725 15726 11
11795 15725 15727 11
11796 15725 15728 12
11797 15729 15730 11
11798 15729 15731 11
11799 15729 15732 12
11800 15733 15734 11
11801 15733 15735 11
11802 15733 15736 12
11803 15737 15738 11
11804 15737 15739 11
11805 15737 15740 12
11806 15741 15742 11
11807 15741 15743 11
11808 15741 15744 12
11809 15745 15746 11
11810 15745 15747 11
11811 15745 15748 12
11812 15749 15750 11
11813 15749 15751 11
11814 15749 15752 12
11815 15753 15754 11
11816 15753 15755 11
11817 15753 15756 12
11818 15757 15758 11
11819 15757 15759 11
11820 15757 15760 12
11821 15761 15762 11
11822 15761 15763 11
11823 15761 15764 12
11824 15765 15766 11
11825 15765 15767 11
11826 15765 15768 12
11827 15769 15770 11
11828 15769 15771 11
11829 15769 15772 12
11830 15773 15774 11
11831 15773 15775 11
11832 15773 15776 12
11833 15777 15778 11
11834 15777 15779 11
11835 15777 15780 12
11836 15781 15782 11
11837 15781 15783 11
11838 15781 15784 12
11839 15785 15786 11
11840 15785 15787 11
11841 15785 15788 12
11842 15789 15790 11
11843 15789 15791 11
11844 15789 15792 12
11845 15793 15794 11
11846 15793 15795 11
11847 15793 15796 12
11848 15797 15798 11
11849 15797 15799 11
11850 15797 15800 12
11851 15801 15802 11
11852 15801 15803 11
11853 15801 15804 12
11854 15805 15806 11
11855 15805 15807 11
11856 15805 15808 12
11857 15809 15810 11
11858 15809 15811 11
11859 15809 15812 12
11860 15813 15814 11
11861 15813 15815 11
11862 15813 15816 12
11863 15817 15818 11
11864 15817 15819 11
11865 15817 15820 12
11866 15821 15822 11
11867 15821 15823 11
11868 15821 15824 12
11869 15825 15826 11
11870 15825 15827 11
11871 15825 15828 12
11872 15829 15830 11
11873 15829 15831 11
11874 15829 15832 12
11875 15833 15834 11
11876 15833 15835 11
11877 15833 15836 12
11878 15837 15838 11
11879 15837 15839 11
11880 15837 15840 12
11881 15841 15842 11
11882 15841 15843 11
11883 15841 15844 12
11884 15845 15846 11
11885 15845 15847 11
11886 15845 15848 12
11887 15849 15850 11
11888 15849 15851 11
11889 15849 15852 12
11890 15853 15854 11
11891 15853 15855 11
11892 15853 15856 12
11893 15857 15858 11
11894 15857 15859 11
11895 15857 15860 12
11896 15861 15862 11
11897 15861 15863 11
11898 15861 15864 12
11899 15865 15866 11
11900 15865 15867 11
11901 15865 15868 12
11902 15869 15870 11
11903 15869 15871 11
11904 15869 15872 12
11905 15873 15874 11
11906 15873 15875 11
11907 15873 15876 12
11908 15877 15878 11
11909 15877 15879 11
11910 15877 15880 12
11911 15881 15882 11
11912 15881 15883 11
11913 15881 15884 12
11914 15885 15886 11
11915 15885 15887 11
11916 15885 15888 12
11917 15889 15890 11
11918 15889 15891 11
11919 15889 15892 12
11920 15893 15894 11
11921 15893 15895 11
11922 15893 15896 12
11923 15897 15898 11
11924 15897 15899 11
11925 15897 15900 12
11926 15901 15902 11
11927 15901 15903 11
11928 15901 15904 12
11929 15905 15906 11
11930 15905 15907 11
11931 15905 15908 12
11932 15909 15910 11
11933 15909 15911 11
11934 15909 15912 12
11935 15913 15914 11
11936 15913 15915 11
11937 15913 15916 12
11938 15917 15918 11
11939 15917 15919 11
11940 15917 15920 12
11941 15921 15922 11
11942 15921 15923 11
11943 15921 15924 12
11944 15925 15926 11
11945 15925 15927 11
11946 15925 15928 12
11947 15929 15930 11
11948 15929 15931 11
11949 15929 15932 12
11950 15933 15934 11
11951 15933 15935 11
11952 15933 15936 12
11953 15937 15938 11
11954 15937 15939 11
11955 15937 15940 12
11956 15941 15942 11
11957 15941 15943 11
11958 15941 15944 12
11959 15945 15946 11
11960 15945 15947 11
11961 15945 15948 12
11962 15949 15950 11
11963 15949 15951 11
11964 15949 15952 12
11965 15953 15954 11
11966 15953 15955 11
11967 15953 15956 12
11968 15957 15958 11
11969 15957 15959 11
11970 15957 15960 12
11971 15961 15962 11
11972 15961 15963 11
11973 15961 15964 12
11974 15965 15966 11
11975 15965 15967 11
11976 15965 15968 12
11977 15969 15970 11
11978 15969 15971 11
11979 15969 15972 12
11980 15973 15974 11
11981 15973 15975 11
11982 15973 15976 12
11983 15977 15978 11
11984 15977 15979 11
11985 15977 15980 12
11986 15981 15982 11
11987 15981 15983 11
11988 15981 15984 12
11989 15985 15986 11
11990 15985 15987 11
11991 15985 15988 12
11992 15989 15990 11
11993 15989 15991 11
11994 15989 15992 12
11995 15993 15994 11
11996 15993 15995 11
11997 15993 15996 12
11998 15997 15998 11
11999 15997 15999 11
12000 15997 16000 12
12001 16001 16002 11
12002 16001 16003 11
12003 16001 16004 12
12004 16005 16006 11
12005 16005 16007 11
12006 16005 16008 12
12007 16009 16010 11
12008 16009 16011 11
12009 16009 16012 12
12010 16013 16014 11
12011 16013 16015 11
12012 16013 16016 12
12013 16017 16018 11
12014 16017 16019 11
12015 16017 16020 12
12016 16021 16022 11
12017 16021 16023 11
12018 16021 16024 12
12019 16025 16026 11
12020 16025 16027 11
12021 16025 16028 12
12022 16029 16030 11
12023 16029 16031 11
12024 16029 16032 12
12025 16033 16034 11
12026 16033 16035 11
12027 16033 16036 12
12028 16037 16038 11
12029 16037 16039 11
12030 16037 16040 12
12031 16041 16042 11
12032 16041 16043 11
12033 16041 16044 12
12034 16045 16046 11
12035 16045 16047 11
12036 16045 16048 12
12037 16049 16050 11
12038 16049 16051 11
12039 16049 16052 12
12040 16053 16054 11
12041 16053 16055 11
12042 16053 16056 12
12043 16057 16058 11
12044 16057 16059 11
12045 16057 16060 12
12046 16061 16062 11
12047 16061 16063 11
12048 16061 16064 12
12049 16065 16066 11
12050 16065 16067 11
12051 16065 16068 12
12052 16069 16070 11
12053 16069 16071 11
12054 16069 16072 12
12055 16073 16074 11
12056 16073 16075 11
12057 16073 16076 12
12058 16077 16078 11
12059 16077 16079 11
12060 16077 16080 12
12061 16081 16082 11
12062 16081 16083 11
12063 16081 16084 12
12064 16085 16086 11
12065 16085 16087 11
12066 16085 16088 12
12067 16089 16090 11
12068 16089 16091 11
12069 16089 16092 12
12070 16093 16094 11
12071 16093 16095 11
12072 16093 16096 12
12073 16097 16098 11
12074 16097 16099 11
12075 16097 16100 12
12076 16101 16102 11
12077 16101 16103 11
12078 16101 16104 12
12079 16105 16106 11
12080 16105 16107 11
12081 16105 16108 12
12082 16109 16110 11
12083 16109 16111 11
12084 16109 16112 12
12085 16113 16114 11
12086 16113 16115 11
12087 16113 16116 12
12088 16117 16118 11
12089 16117 16119 11
12090 16117 16120 12
12091 16121 16122 11
12092 16121 16123 11
12093 16121 16124 12
12094 16125 16126 11
12095 16125 16127 11
12096 16125 16128 12
12097 16129 16130 11
12098 16129 16131 11
12099 16129 16132 12
12100 16133 16134 11
12101 16133 16135 11
12102 16133 16136 12
12103 16137 16138 11
12104 16137 16139 11
12105 16137 16140 12
12106 16141 16142 11
12107 16141 16143 11
12108 16141 16144 12
12109 16145 16146 11
12110 16145 16147 11
12111 16145 16148 12
12112 16149 16150 11
12113 16149 16151 11
12114 16149 16152 12
12115 16153 16154 11
12116 16153 16155 11
12117 16153 16156 12
12118 16157 16158 11
12119 16157 16159 11
12120 16157 16160 12
12121 16161 16162 11
12122 16161 16163 11
12123 16161 16164 12
12124 16165 16166 11
12125 16165 16167 11
12126 16165 16168 12
12127 16169 16170 11
12128 16169 16171 11
12129 16169 16172 12
12130 16173 16174 11
12131 16173 16175 11
12132 16173 16176 12
12133 16177 16178 11
12134 16177 16179 11
12135 16177 16180 12
12136 16181 16182 11
12137 16181 16183 11
12138 16181 16184 12
12139 16185 16186 11
12140 16185 16187 11
12141 16185 16188 12
12142 16189 16190 11
12143 16189 16191 11
12144 16189 16192 12
12145 16193 16194 11
12146 16193 16195 11
12147 16193 16196 12
12148 16197 16198 11
12149 16197 16199 11
12150 16197 16200 12
12151 16201 16202 11
12152 16201 16203 11
12153 16201 16204 12
12154 16205 16206 11
12155 16205 16207 11
12156 16205 16208 12
12157 16209 16210 11
12158 16209 16211 11
12159 16209 16212 12
12160 16213 16214 11
12161 16213 16215 11
12162 16213 16216 12
12163 16217 16218 11
12164 16217 16219 11
12165 16217 16220 12
12166 16221 16222 11
12167 16221 16223 11
12168 16221 16224 12
12169 16225 16226 11
12170 16225 16227 11
12171 16225 16228 12
12172 16229 16230 11
12173 16229 16231 11
12174 16229 16232 12
12175 16233 16234 11
12176 16233 16235 11
12177 16233 16236 12
12178 16237 16238 11
12179 16237 16239 11
12180 16237 16240 12
12181 16241 16242 11
12182 16241 16243 11
12183 16241 16244 12
12184 16245 16246 11
12185 16245 16247 11
12186 16245 16248 12
12187 16249 16250 11
12188 16249 16251 11
12189 16249 16252 12
12190 16253 16254 11
12191 16253 16255 11
12192 16253 16256 12
12193 16257 16258 11
12194 16257 16259 11
12195 16257 16260 12
12196 16261 16262 11
12197 16261 16263 11
12198 16261 16264 12
12199 16265 16266 11
12200 16265 16267 11
12201 16265 16268 12
12202 16269 16270 11
12203 16269 16271 11
12204 16269 16272 12
12205 16273 16274 11
12206 16273 16275 11
12207 16273 16276 12
12208 16277 16278 11
12209 16277 16279 11
12210 16277 16280 12
12211 16281 16282 11
12212 16281 16283 11
12213 16281 16284 12
12214 16285 16286 11
12215 16285 16287 11
12216 16285 16288 12
12217 16289 16290 11
12218 16289 16291 11
12219 16289 16292 12
12220 16293 16294 11
12221 16293 16295 11
12222 16293 16296 12
12223 16297 16298 11
12224 16297 16299 11
12225 16297 16300 12
12226 16301 16302 11
12227 16301 16303 11
12228 16301 16304 12
12229 16305 16306 11
12230 16305 16307 11
12231 16305 16308 12
12232 16309 16310 11
12233 16309 16311 11
12234 16309 16312 12
12235 16313 16314 11
12236 16313 16315 11
12237 16313 16316 12
12238 16317 16318 11
12239 16317 16319 11
12240 16317 16320 12
12241 16321 16322 11
12242 16321 16323 11
12243 16321 16324 12
12244 16325 16326 11
12245 16325 16327 11
12246 16325 16328 12
12247 16329 16330 11
12248 16329 16331 11
12249 16329 16332 12
12250 16333 16334 11
12251 16333 16335 11
12252 16333 16336 12
12253 16337 16338 11
12254 16337 16339 11
12255 16337 16340 12
12256 16341 16342 11
12257 16341 16343 11
12258 16341 16344 12
12259 16345 16346 11
12260 16345 16347 11
12261 16345 16348 12
12262 16349 16350 11
12263 16349 16351 11
12264 16349 16352 12
12265 16353 16354 11
12266 16353 16355 11
12267 16353 16356 12
12268 16357 16358 11
12269 16357 16359 11
12270 16357 16360 12
12271 16361 16362 11
12272 16361 16363 11
12273 16361 16364 12
12274 16365 16366 11
12275 16365 16367 11
12276 16365 16368 12
12277 16369 16370 11
12278 16369 16371 11
12279 16369 16372 12
12280 16373 16374 11
12281 16373 16375 11
12282 16373 16376 12
12283 16377 16378 11
12284 16377 16379 11
12285 16377 16380 12
12286 16381 16382 11
12287 16381 16383 11
12288 16381 16384 12
12289 16385 16386 11
12290 16385 16387 11
12291 16385 16388 12
12292 16389 16390 11
12293 16389 16391 11
12294 16389 16392 12
12295 16393 16394 11
12296 16393 16395 11
12297 16393 16396 12
12298 16397 16398 11
12299 16397 16399 11
12300 16397 16400 12
12301 16401 16402 11
12302 16401 16403 11
12303 16401 16404 12
12304 16405 16406 11
12305 16405 16407 11
12306 16405 16408 12
12307 16409 16410 11
12308 16409 16411 11
12309 16409 16412 12
12310 16413 16414 11
12311 16413 16415 11
12312 16413 16416 12
12313 16417 16418 11
12314 16417 16419 11
12315 16417 16420 12
12316 16421 16422 11
12317 16421 16423 11
12318 16421 16424 12
12319 16425 16426 11
12320 16425 16427 11
12321 16425 16428 12
12322 16429 16430 11
12323 16429 16431 11
12324 16429 16432 12
12325 16433 16434 11
12326 16433 16435 11
12327 16433 16436 12
12328 16437 16438 11
12329 16437 16439 11
12330 16437 16440 12
12331 16441 16442 11
12332 16441 16443 11
12333 16441 16444 12
12334 16445 16446 11
12335 16445 16447 11
12336 16445 16448 12
12337 16449 16450 11
12338 16449 16451 11
12339 16449 16452 12
12340 16453 16454 11
12341 16453 16455 11
12342 16453 16456 12
12343 16457 16458 11
12344 16457 16459 11
12345 16457 16460 12
12346 16461 16462 11
12347 16461 16463 11
12348 16461 16464 12
12349 16465 16466 11
12350 16465 16467 11
12351 16465 16468 12
12352 16469 16470 11
12353 16469 16471 11
12354 16469 16472 12
12355 16473 16474 11
12356 16473 16475 11
12357 16473 16476 12
12358 16477 16478 11
12359 16477 16479 11
12360 16477 16480 12
12361 16481 16482 11
12362 16481 16483 11
12363 16481 16484 12
12364 16485 16486 11
12365 16485 16487 11
12366 16485 16488 12
12367 16489 16490 11
12368 16489 16491 11
12369 16489 16492 12
12370 16493 16494 11
12371 16493 16495 11
12372 16493 16496 12
12373 16497 16498 11
12374 16497 16499 11
12375 16497 16500 12
12376 16501 16502 11
12377 16501 16503 11
12378 16501 16504 12
12379 16505 16506 11
12380 16505 16507 11
12381 16505 16508 12
12382 16509 16510 11
12383 16509 16511 11
12384 16509 16512 12
12385 16513 16514 11
12386 16513 16515 11
12387 16513 16516 12
12388 16517 16518 11
12389 16517 16519 11
12390 16517 16520 12
12391 16521 16522 11
12392 16521 16523 11
12393 16521 16524 12
12394 16525 16526 11
12395 16525 16527 11
12396 16525 16528 12
12397 16529 16530 11
12398 16529 16531 11
12399 16529 16532 12
12400 16533 16534 11
12401 16533 16535 11
12402 16533 16536 12
12403 16537 16538 11
12404 16537 16539 11
12405 16537 16540 12
12406 16541 16542 11
12407 16541 16543 11
12408 16541 16544 12
12409 16545 16546 11
12410 16545 16547 11
12411 16545 16548 12
12412 16549 16550 11
12413 16549 16551 11
12414 16549 16552 12
12415 16553 16554 11
12416 16553 16555 11
12417 16553 16556 12
12418 16557 16558 11
12419 16557 16559 11
12420 16557 16560 12
12421 16561 16562 11
12422 16561 16563 11
12423 16561 16564 12
12424 16565 16566 11
12425 16565 16567 11
12426 16565 16568 12
12427 16569 16570 11
12428 16569 16571 11
12429 16569 16572 12
12430 16573 16574 11
12431 16573 16575 11
12432 16573 16576 12
12433 16577 16578 11
12434 16577 16579 11
12435 16577 16580 12
12436 16581 16582 11
12437 16581 16583 11
12438 16581 16584 12
12439 16585 16586 11
12440 16585 16587 11
12441 16585 16588 12
12442 16589 16590 11
12443 16589 16591 11
12444 16589 16592 12
12445 16593 16594 11
12446 16593 16595 11
12447 16593 16596 12
12448 16597 16598 11
12449 16597 16599 11
12450 16597 16600 12
12451 16601 16602 11
12452 16601 16603 11
12453 16601 16604 12
12454 16605 16606 11
12455 16605 16607 11
12456 16605 16608 12
12457 16609 16610 11
12458 16609 16611 11
12459 16609 16612 12
12460 16613 16614 11
12461 16613 16615 11
12462 16613 16616 12
12463 16617 16618 11
12464 16617 16619 11
12465 16617 16620 12
12466 16621 16622 11
12467 16621 16623 11
12468 16621 16624 12
12469 16625 16626 11
12470 16625 16627 11
12471 16625 16628 12
12472 16629 16630 11
12473 16629 16631 11
12474 16629 16632 12
12475 16633 16634 11
12476 16633 16635 11
12477 16633 16636 12
12478 16637 16638 11
12479 16637 16639 11
12480 16637 16640 12
12481 16641 16642 11
12482 16641 16643 11
12483 16641 16644 12
12484 16645 16646 11
12485 16645 16647 11
12486 16645 16648 12
12487 16649 16650 11
12488 16649 16651 11
12489 16649 16652 12
12490 16653 16654 11
12491 16653 16655 11
12492 16653 16656 12
12493 16657 16658 11
12494 16657 16659 11
12495 16657 16660 12
12496 16661 16662 11
12497 16661 16663 11
12498 16661 16664 12
12499 16665 16666 11
12500 16665 16667 11
12501 16665 16668 12
12502 16669 16670 11
12503 16669 16671 11
12504 16669 16672 12
12505 16673 16674 11
12506 16673 16675 11
12507 16673 16676 12
12508 16677 16678 11
12509 16677 16679 11
12510 16677 16680 12
12511 16681 16682 11
12512 16681 16683 11
12513 16681 16684 12
12514 16685 16686 11
12515 16685 16687 11
12516 16685 16688 12
12517 16689 16690 11
12518 16689 16691 11
12519 16689 16692 12
12520 16693 16694 11
12521 16693 16695 11
12522 16693 16696 12
12523 16697 16698 11
12524 16697 16699 11
12525 16697 16700 12
12526 16701 16702 11
12527 16701 16703 11
12528 16701 16704 12
12529 16705 16706 11
12530 16705 16707 11
12531 16705 16708 12
12532 16709 16710 11
12533 16709 16711 11
12534 16709 16712 12
@<TRIPOS>CRYSIN
50.0 50.0 50.0 90 90 90 1 1
