@<TRIPOS>MOLECULE
Given2
188 213
SMALL
USER_CHARGES


@<TRIPOS>ATOM
1 C -20.4265 6.53348 0.151134 C 0.0 **** 0.0
2 C -19.5898 5.38833 -0.464615 C 0.0 **** 0.0
3 C -18.1666 5.86706 -0.292128 C 0.0 **** 0.0
4 C -18.1774 7.28696 -0.105896 C 0.0 **** 0.0
5 C -19.5931 7.81111 -0.119676 C 0.0 **** 0.0
6 C -17.0056 7.97904 0.0605459 C 0.0 **** 0.0
7 C -15.7473 7.28337 0.059899 C 0.0 **** 0.0
8 C -15.7528 5.83586 -0.126632 C 0.0 **** 0.0
9 C -16.9995 5.15315 -0.302492 C 0.0 **** 0.0
10 C -14.5363 5.15551 -0.124815 C 0.0 **** 0.0
11 C -13.3026 5.81952 0.0544557 C 0.0 **** 0.0
12 C -13.312 7.26283 0.243837 C 0.0 **** 0.0
13 C -14.5422 7.95278 0.238004 C 0.0 **** 0.0
14 C -12.0938 7.93047 0.434359 C 0.0 **** 0.0
15 C -10.868 7.25407 0.45286 C 0.0 **** 0.0
16 C -10.8503 5.80729 0.250581 C 0.0 **** 0.0
17 C -12.073 5.14349 0.0576662 C 0.0 **** 0.0
18 C -9.62115 5.11238 0.256306 C 0.0 **** 0.0
19 C -8.41633 5.77649 0.468995 C 0.0 **** 0.0
20 C -8.41883 7.21879 0.692568 C 0.0 **** 0.0
21 C -9.6286 7.91762 0.673683 C 0.0 **** 0.0
22 C -7.17822 7.87961 0.943888 C 0.0 **** 0.0
23 C -6.04184 7.1295 0.958062 C 0.0 **** 0.0
24 C -6.13775 5.70779 0.71067 C 0.0 **** 0.0
25 N -7.24695 5.04386 0.475828 N 0.0 **** 0.0
26 C -4.78949 5.14614 0.797989 C 0.0 **** 0.0
27 C -3.88069 6.19896 1.11611 C 0.0 **** 0.0
28 C -4.60985 7.52141 1.21176 C 0.0 **** 0.0
29 C -2.54507 5.93751 1.30726 C 0.0 **** 0.0
30 C -2.0662 4.60906 1.17411 C 0.0 **** 0.0
31 C -2.97691 3.5505 0.814252 C 0.0 **** 0.0
32 C -4.34936 3.84512 0.636282 C 0.0 **** 0.0
33 C -2.48138 2.22262 0.666797 C 0.0 **** 0.0
34 C -1.15378 1.93812 0.887124 C 0.0 **** 0.0
35 C -0.281984 2.98546 1.28609 C 0.0 **** 0.0
36 C -0.706268 4.28447 1.41629 C 0.0 **** 0.0
37 C 1.11974 2.48399 1.50493 C 0.0 **** 0.0
38 C 1.52403 1.87255 0.162093 C 0.0 **** 0.0
39 C 0.758818 0.682567 -0.190619 C 0.0 **** 0.0
40 C -0.485865 0.551368 0.78133 C 0.0 **** 0.0
41 C 2.29675 2.64487 -0.66733 C 0.0 **** 0.0
42 C 2.92816 2.22028 -1.936 C 0.0 **** 0.0
43 C 3.29557 0.788171 -2.07411 C 0.0 **** 0.0
44 C 2.49016 -0.317826 -1.70046 C 0.0 **** 0.0
45 C 1.12975 -0.223439 -1.15124 C 0.0 **** 0.0
46 C 2.99687 -1.62436 -1.95717 C 0.0 **** 0.0
47 C 2.20651 -2.8804 -1.64133 C 0.0 **** 0.0
48 C 0.780274 -2.65746 -1.126 C 0.0 **** 0.0
49 C 0.264864 -1.3351 -1.69764 C 0.0 **** 0.0
50 C 4.54592 0.576288 -2.66911 C 0.0 **** 0.0
51 C 5.05959 -0.696489 -2.87037 C 0.0 **** 0.0
52 C 4.27436 -1.80322 -2.51684 C 0.0 **** 0.0
53 C 4.77849 -3.19847 -2.7351 C 0.0 **** 0.0
54 C 6.16082 -3.34642 -3.30352 C 0.0 **** 0.0
55 C 6.94604 -2.2432 -3.63619 C 0.0 **** 0.0
56 C 6.43625 -0.838719 -3.46163 C 0.0 **** 0.0
57 C 8.24815 -2.43554 -4.14188 C 0.0 **** 0.0
58 C 8.74923 -3.72725 -4.30891 C 0.0 **** 0.0
59 C 7.94791 -4.8442 -3.98848 C 0.0 **** 0.0
60 C 6.65868 -4.65248 -3.4892 C 0.0 **** 0.0
61 C 5.75995 -5.80487 -3.13548 C 0.0 **** 0.0
62 C 6.33017 -7.17337 -3.34105 C 0.0 **** 0.0
63 C 7.60752 -7.36325 -3.82746 C 0.0 **** 0.0
64 C 8.51382 -6.2247 -4.19564 C 0.0 **** 0.0
65 C 8.07963 -8.69462 -3.98538 C 0.0 **** 0.0
66 N 7.39518 -9.78513 -3.70377 N 0.0 **** 0.0
67 C 6.12453 -9.61493 -3.22081 C 0.0 **** 0.0
68 C 5.5463 -8.31999 -3.02266 C 0.0 **** 0.0
69 C 4.22197 -8.24184 -2.51935 C 0.0 **** 0.0
70 C 3.50959 -9.38781 -2.22862 C 0.0 **** 0.0
71 C 4.07336 -10.6783 -2.42065 C 0.0 **** 0.0
72 C 5.36516 -10.7708 -2.91045 C 0.0 **** 0.0
73 C 10.1453 -3.98178 -4.80643 C 0.0 **** 0.0
74 C 10.9716 -2.77683 -5.16138 C 0.0 **** 0.0
75 C 10.4561 -1.4846 -5.01187 C 0.0 **** 0.0
76 C 9.07224 -1.22535 -4.48416 C 0.0 **** 0.0
77 C 11.239 -0.383129 -5.35791 C 0.0 **** 0.0
78 C 12.5315 -0.534472 -5.85786 C 0.0 **** 0.0
79 C 13.0774 -1.83607 -6.03035 C 0.0 **** 0.0
80 C 12.2762 -2.94849 -5.66274 C 0.0 **** 0.0
81 C 12.8012 -4.35924 -5.81668 C 0.0 **** 0.0
82 C 14.3189 -4.44392 -5.94515 C 0.0 **** 0.0
83 C 14.7975 -3.45854 -7.00885 C 0.0 **** 0.0
84 C 14.433 -2.03074 -6.62246 C 0.0 **** 0.0
85 O -16.9577 9.34202 0.243406 O 0.0 **** 0.0
86 O -9.5636 9.27152 0.886336 O 0.0 **** 0.0
87 C -1.56787 -0.48769 0.493695 C 0.0 **** 0.0
88 O 2.611 3.94432 -0.378759 O 0.0 **** 0.0
89 O 3.30553 3.06085 -2.75565 O 0.0 **** 0.0
90 O 13.2679 0.559967 -6.20442 O 0.0 **** 0.0
91 O 15.2303 -1.11648 -6.80576 O 0.0 **** 0.0
92 C 3.2619 -11.9038 -2.09538 C 0.0 **** 0.0
93 C 1.04096 1.36998 2.50664 C 0.0 **** 0.0
94 C 0.215538 0.317425 2.13722 C 0.0 **** 0.0
95 C 0.116183 -0.814144 3.00425 C 0.0 **** 0.0
96 C 0.769481 -0.771748 4.26247 C 0.0 **** 0.0
97 C 1.56294 0.340693 4.63711 C 0.0 **** 0.0
98 C 1.73003 1.41129 3.74043 C 0.0 **** 0.0
99 C 2.19068 0.400373 5.94186 C 0.0 **** 0.0
100 C 1.94885 -0.691966 6.8926 C 0.0 **** 0.0
101 C 1.19643 -1.77177 6.53402 C 0.0 **** 0.0
102 C 0.603197 -1.87179 5.1925 C 0.0 **** 0.0
103 C 0.931497 -2.90603 7.47188 C 0.0 **** 0.0
104 C 1.43626 -2.69997 8.87215 C 0.0 **** 0.0
105 C 2.1541 -1.62139 9.23183 C 0.0 **** 0.0
106 C 2.54484 -0.547028 8.25566 C 0.0 **** 0.0
107 C 2.63044 -1.3993 10.6467 C 0.0 **** 0.0
108 C 1.92042 -2.29525 11.6661 C 0.0 **** 0.0
109 C 1.86009 -3.73605 11.1512 C 0.0 **** 0.0
110 C 1.0692 -3.79713 9.84032 C 0.0 **** 0.0
111 O 2.4896 2.47324 4.03868 O 0.0 **** 0.0
112 O -0.582074 -1.90222 2.66167 O 0.0 **** 0.0
113 O 2.92277 1.37965 6.27192 O 0.0 **** 0.0
114 O -0.0569463 -2.90874 4.87774 O 0.0 **** 0.0
115 H -0.154879 -3.11408 7.48017 H 0.0 **** 0.0
116 H 1.35957 -3.83217 7.04077 H 0.0 **** 0.0
117 H 3.64701 -0.487966 8.16359 H 0.0 **** 0.0
118 H 2.27423 0.449048 8.6535 H 0.0 **** 0.0
119 H 3.72331 -1.56904 10.6886 H 0.0 **** 0.0
120 H 2.48796 -0.33599 10.908 H 0.0 **** 0.0
121 H 0.893152 -1.92369 11.8193 H 0.0 **** 0.0
122 H 2.43251 -2.24586 12.6392 H 0.0 **** 0.0
123 H 1.40906 -4.4048 11.9007 H 0.0 **** 0.0
124 H 2.88706 -4.09598 10.971 H 0.0 **** 0.0
125 H -0.0165758 -3.73978 10.0471 H 0.0 **** 0.0
126 H 1.22077 -4.77308 9.34648 H 0.0 **** 0.0
127 H 2.8396 2.27653 4.98125 H 0.0 **** 0.0
128 H -0.506748 -2.52867 3.47957 H 0.0 **** 0.0
129 H -20.4985 6.38151 1.23863 H 0.0 **** 0.0
130 H -21.4458 6.59458 -0.253591 H 0.0 **** 0.0
131 H -19.7774 4.41185 0.00363563 H 0.0 **** 0.0
132 H -19.8168 5.28529 -1.54068 H 0.0 **** 0.0
133 H -19.8432 8.23511 -1.10955 H 0.0 **** 0.0
134 H -19.7827 8.59878 0.629326 H 0.0 **** 0.0
135 H -16.9921 4.07034 -0.439941 H 0.0 **** 0.0
136 H -14.5339 4.07241 -0.268764 H 0.0 **** 0.0
137 H -14.5458 9.03381 0.381958 H 0.0 **** 0.0
138 H -12.1508 9.01537 0.572271 H 0.0 **** 0.0
139 H -12.062 4.06154 -0.0932168 H 0.0 **** 0.0
140 H -7.1709 8.95504 1.12395 H 0.0 **** 0.0
141 H -4.24046 8.24119 0.461748 H 0.0 **** 0.0
142 H -4.47529 7.9933 2.19913 H 0.0 **** 0.0
143 H -1.84176 6.73179 1.56862 H 0.0 **** 0.0
144 H -5.05622 3.05231 0.384881 H 0.0 **** 0.0
145 H -3.19226 1.44604 0.386326 H 0.0 **** 0.0
146 H -0.016742 5.07085 1.73572 H 0.0 **** 0.0
147 H 1.81372 3.25553 1.85481 H 0.0 **** 0.0
148 H 2.77765 -3.5047 -0.933623 H 0.0 **** 0.0
149 H 2.15181 -3.47697 -2.56918 H 0.0 **** 0.0
150 H 0.760717 -2.60471 -0.0262771 H 0.0 **** 0.0
151 H 0.139501 -3.50078 -1.42522 H 0.0 **** 0.0
152 H -0.795695 -1.18526 -1.51793 H 0.0 **** 0.0
153 H 0.400762 -1.35077 -2.79304 H 0.0 **** 0.0
154 H 5.12249 1.45437 -2.96569 H 0.0 **** 0.0
155 H 4.72342 -3.75108 -1.77887 H 0.0 **** 0.0
156 H 4.06019 -3.73665 -3.38297 H 0.0 **** 0.0
157 H 6.45703 -0.318662 -4.4375 H 0.0 **** 0.0
158 H 7.14619 -0.268093 -2.83556 H 0.0 **** 0.0
159 H 5.43978 -5.71406 -2.08073 H 0.0 **** 0.0
160 H 4.8162 -5.72385 -3.70682 H 0.0 **** 0.0
161 H 8.8175 -6.34147 -5.25329 H 0.0 **** 0.0
162 H 9.45999 -6.3241 -3.63126 H 0.0 **** 0.0
163 H 9.09584 -8.8443 -4.37202 H 0.0 **** 0.0
164 H 3.76102 -7.26593 -2.36087 H 0.0 **** 0.0
165 H 2.4906 -9.30724 -1.84326 H 0.0 **** 0.0
166 H 5.83815 -11.7407 -3.07443 H 0.0 **** 0.0
167 H 10.6771 -4.57804 -4.04049 H 0.0 **** 0.0
168 H 10.1028 -4.65883 -5.67986 H 0.0 **** 0.0
169 H 8.52762 -0.605664 -5.22101 H 0.0 **** 0.0
170 H 9.15289 -0.575195 -3.59301 H 0.0 **** 0.0
171 H 10.8297 0.625348 -5.23915 H 0.0 **** 0.0
172 H 12.4658 -4.97428 -4.9685 H 0.0 **** 0.0
173 H 12.3325 -4.80937 -6.71294 H 0.0 **** 0.0
174 H 14.6221 -5.47225 -6.19295 H 0.0 **** 0.0
175 H 14.7842 -4.19015 -4.97829 H 0.0 **** 0.0
176 H 14.3022 -3.68716 -7.97071 H 0.0 **** 0.0
177 H 15.8827 -3.4919 -7.17216 H 0.0 **** 0.0
178 H -17.867 9.68186 0.227083 H 0.0 **** 0.0
179 H -10.4608 9.63965 0.886242 H 0.0 **** 0.0
180 H -1.17759 -1.50304 0.428351 H 0.0 **** 0.0
181 H -2.10773 -0.225274 -0.42483 H 0.0 **** 0.0
182 H -2.28546 -0.467001 1.32417 H 0.0 **** 0.0
183 H 1.97088 4.3002 0.258664 H 0.0 **** 0.0
184 H 12.7192 1.34861 -6.05615 H 0.0 **** 0.0
185 H 3.82985 -12.8221 -2.29555 H 0.0 **** 0.0
186 H 2.33701 -11.9309 -2.69352 H 0.0 **** 0.0
187 H 2.96038 -11.9063 -1.03565 H 0.0 **** 0.0
188 H -9.60117 4.03429 0.0964872 H 0.0 **** 0.0
@<TRIPOS>BOND
1 1 2 1
2 1 129 1
3 1 130 1
4 1 5 1
5 2 3 1
6 3 4 2
7 3 9 2
8 4 5 1
9 4 6 2
10 6 85 1
11 6 7 2
12 7 8 1
13 8 9 2
14 10 8 2
15 10 136 1
16 10 11 2
17 11 12 1
18 11 17 2
19 12 13 2
20 12 14 2
21 13 7 2
22 13 137 1
23 14 15 2
24 15 21 2
25 15 16 1
26 16 17 2
27 16 18 2
28 18 188 1
29 18 19 2
30 19 20 1
31 19 25 ar
32 20 21 2
33 20 22 2
34 21 86 1
35 22 23 2
36 23 24 1
37 23 28 1
38 24 25 ar
39 24 26 1
40 26 27 2
41 26 32 2
42 27 28 1
43 27 29 2
44 29 30 2
45 30 31 1
46 30 36 2
47 31 32 2
48 31 33 2
49 33 34 2
50 34 35 2
51 34 40 1
52 35 36 2
53 35 37 1
54 37 38 1
55 37 93 1
56 38 39 1
57 38 41 2
58 39 40 1
59 39 45 2
60 40 87 1
61 40 94 1
62 41 42 1
63 41 88 1
64 42 89 2
65 42 43 1
66 43 44 2
67 43 50 2
68 44 45 1
69 44 46 2
70 45 49 1
71 46 47 1
72 46 52 2
73 47 48 1
74 48 49 1
75 50 51 2
76 51 52 2
77 51 56 1
78 52 53 1
79 53 54 1
80 54 55 2
81 54 60 2
82 55 56 1
83 55 57 2
84 57 76 1
85 57 58 2
86 58 73 1
87 58 59 2
88 59 64 1
89 59 60 2
90 60 61 1
91 61 62 1
92 62 63 2
93 62 68 2
94 63 64 1
95 63 65 2
96 65 66 ar
97 66 67 ar
98 67 68 2
99 67 72 2
100 68 69 2
101 69 70 2
102 70 71 2
103 71 72 2
104 71 92 1
105 73 74 1
106 74 75 2
107 74 80 2
108 75 76 1
109 75 77 2
110 77 78 2
111 78 79 2
112 78 90 1
113 79 80 2
114 79 84 1
115 80 81 1
116 81 82 1
117 82 83 1
118 83 84 1
119 84 91 2
120 93 94 2
121 93 98 2
122 94 95 2
123 95 96 2
124 96 97 2
125 97 98 2
126 97 99 1
127 100 99 1
128 100 101 2
129 100 106 1
130 101 102 1
131 101 103 1
132 102 96 1
133 102 114 2
134 103 104 1
135 103 115 1
136 103 116 1
137 104 105 2
138 104 110 1
139 105 106 1
140 105 107 1
141 106 117 1
142 106 118 1
143 107 108 1
144 107 119 1
145 107 120 1
146 108 109 1
147 108 121 1
148 108 122 1
149 109 110 1
150 109 123 1
151 109 124 1
152 110 125 1
153 110 126 1
154 111 127 1
155 111 98 1
156 112 95 1
157 112 128 1
158 113 99 2
159 131 2 1
160 132 2 1
161 133 5 1
162 134 5 1
163 135 9 1
164 138 14 1
165 139 17 1
166 140 22 1
167 141 28 1
168 142 28 1
169 143 29 1
170 144 32 1
171 145 33 1
172 146 36 1
173 147 37 1
174 148 47 1
175 149 47 1
176 150 48 1
177 151 48 1
178 152 49 1
179 153 49 1
180 154 50 1
181 155 53 1
182 156 53 1
183 157 56 1
184 158 56 1
185 159 61 1
186 160 61 1
187 161 64 1
188 162 64 1
189 163 65 1
190 164 69 1
191 165 70 1
192 166 72 1
193 167 73 1
194 168 73 1
195 169 76 1
196 170 76 1
197 171 77 1
198 172 81 1
199 173 81 1
200 174 82 1
201 175 82 1
202 176 83 1
203 177 83 1
204 178 85 1
205 179 86 1
206 180 87 1
207 181 87 1
208 182 87 1
209 183 88 1
210 184 90 1
211 185 92 1
212 186 92 1
213 187 92 1
