@<TRIPOS>MOLECULE
mol
37500 30000
SMALL
USER_CHARGES


@<TRIPOS>ATOM
1 C 59.62033801044936 7.659685992265292 51.2218613294846 C 0.0 **** -0.24
2 H 59.46488259519623 8.398264489981553 50.435746647745674 H 0.0 **** 0.06
3 H 59.44211234127437 6.6613128182101455 50.82296849686426 H 0.0 **** 0.06
4 H 58.929509854319235 7.852394640063132 52.04246642195835 H 0.0 **** 0.06
5 H 60.64562927964914 7.7279048814741 51.58593949024831 H 0.0 **** 0.06
6 C 71.59097504387634 140.27577045490835 142.22669314417917 C 0.0 **** -0.24
7 H 71.36781275764982 139.2134773740857 142.13010184627393 H 0.0 **** 0.06
8 H 71.765667102148 140.702748832973 141.23851396037026 H 0.0 **** 0.06
9 H 72.4827712529754 140.40501209559775 142.84064595412923 H 0.0 **** 0.06
10 H 70.74831675732196 140.78230131972646 142.6980978800444 H 0.0 **** 0.06
11 C 85.64160411296089 48.94413184143286 122.86193520643666 C 0.0 **** -0.24
12 H 85.43593854507841 49.229855606182696 121.83051362133459 H 0.0 **** 0.06
13 H 84.84766492493944 48.28871257783095 123.22216169050668 H 0.0 **** 0.06
14 H 85.6844757458721 49.837677071158254 123.48471272883958 H 0.0 **** 0.06
15 H 86.59610390950408 48.42027790865001 122.91046438131873 H 0.0 **** 0.06
16 C 17.862088385388518 60.40875773208907 36.34263646848109 C 0.0 **** -0.24
17 H 17.220689494775968 60.02448140095896 37.13565920084298 H 0.0 **** 0.06
18 H 18.25735075281841 61.38190479214481 36.63426356802535 H 0.0 **** 0.06
19 H 17.28253997230314 60.51079532504363 35.4246207257321 H 0.0 **** 0.06
20 H 18.68746502947863 59.716145330481794 36.176037009697694 H 0.0 **** 0.06
21 C 82.94681993795493 58.78790035650907 53.41792249018222 C 0.0 **** -0.24
22 H 83.02664128500706 59.833398904933375 53.71516350453932 H 0.0 **** 0.06
23 H 83.94177191126428 58.342946612740235 53.38194080831961 H 0.0 **** 0.06
24 H 82.48434839213681 58.724515379173496 52.43352508088698 H 0.0 **** 0.06
25 H 82.33497213405028 58.25048510235233 54.14237538832192 H 0.0 **** 0.06
26 C 140.40092757206364 134.18804237553462 36.10470591048058 C 0.0 **** -0.24
27 H 139.99256723435272 134.0214386967784 35.107013059942325 H 0.0 **** 0.06
28 H 141.13353888805565 133.41292005665883 36.33070141700113 H 0.0 **** 0.06
29 H 139.59531314115608 134.1523906643692 36.83697032344767 H 0.0 **** 0.06
30 H 140.881825470545 135.1651161398134 36.1399326956297 H 0.0 **** 0.06
31 C 28.549793834940495 124.73020784779374 92.36576015324968 C 0.0 **** -0.24
32 H 29.091988652351304 125.62859005493476 92.66201531050494 H 0.0 **** 0.06
33 H 29.195272472455493 124.10233004215081 91.75184267385458 H 0.0 **** 0.06
34 H 27.665080941485357 125.0113643273321 91.79507460235196 H 0.0 **** 0.06
35 H 28.24765570281466 124.17913032678575 93.25693356945371 H 0.0 **** 0.06
36 C 15.38481884567966 111.06516666191989 43.690565282460426 C 0.0 **** -0.24
37 H 16.242484370092 110.82793423076122 43.06089669569009 H 0.0 **** 0.06
38 H 15.687386803244067 111.04897548961496 44.73759936637279 H 0.0 **** 0.06
39 H 14.599216351002298 110.32681811461866 43.5272402111967 H 0.0 **** 0.06
40 H 15.01014053923268 112.05662494032602 43.4348221011425 H 0.0 **** 0.06
41 C 22.71691343235193 128.6208564747581 134.01721750166868 C 0.0 **** -0.24
42 H 23.624578475992436 129.20397801852002 133.86749024409377 H 0.0 **** 0.06
43 H 22.938995429734078 127.75331472231045 134.63890215276652 H 0.0 **** 0.06
44 H 22.33486277450885 128.28859832634197 133.05153082923925 H 0.0 **** 0.06
45 H 21.96646034195328 129.23870704482272 134.51078284395552 H 0.0 **** 0.06
46 C 89.33124561305726 49.96780456532102 100.37323871013515 C 0.0 **** -0.24
47 H 88.3322168340955 49.559250370627154 100.52703366514118 H 0.0 **** 0.06
48 H 89.2984611467069 51.05285804050891 100.47233985568968 H 0.0 **** 0.06
49 H 89.68102811328882 49.703766530535376 99.37541457818342 H 0.0 **** 0.06
50 H 90.01098478574642 49.55461331097305 101.11770193462753 H 0.0 **** 0.06
51 C 92.92916567033701 126.67317429948461 71.93824912744111 C 0.0 **** -0.24
52 H 93.2631055753524 127.70803449802743 71.86268850084494 H 0.0 **** 0.06
53 H 93.43657508551462 126.18852918170198 72.77198449526401 H 0.0 **** 0.06
54 H 93.1659515857994 126.14756542497636 71.01223524345336 H 0.0 **** 0.06
55 H 91.85198604750227 126.65033100219472 72.10344640786093 H 0.0 **** 0.06
56 C 81.25039953125486 11.954018089721401 14.570656135501025 C 0.0 **** -0.24
57 H 80.86485762146224 11.769098859225586 13.567411267893675 H 0.0 **** 0.06
58 H 81.99490381537014 12.74918196587128 14.531969238983947 H 0.0 **** 0.06
59 H 81.70877293380353 11.043612546694135 14.955947501272334 H 0.0 **** 0.06
60 H 80.43080053031397 12.253576628743566 15.22375877078943 H 0.0 **** 0.06
61 C 142.1849880575835 92.09510927882621 126.5045850015249 C 0.0 **** -0.24
62 H 142.14478966478336 92.75381867790283 125.63696819632932 H 0.0 **** 0.06
63 H 143.2004464146736 92.07499042836874 126.89829223562188 H 0.0 **** 0.06
64 H 141.88855150959478 91.08878036494686 126.20957251907589 H 0.0 **** 0.06
65 H 141.50401186745634 92.46480888835393 127.27163099271687 H 0.0 **** 0.06
66 C 5.667839966064605 116.76505377634575 138.09520661393015 C 0.0 **** -0.24
67 H 5.567926033144829 115.88471612586378 137.4597872632597 H 0.0 **** 0.06
68 H 5.120074202227556 117.59701797439553 137.65074940598132 H 0.0 **** 0.06
69 H 6.721408716782605 117.02972709819537 138.18605718262464 H 0.0 **** 0.06
70 H 5.260237637897092 116.54771178174738 139.0822378567391 H 0.0 **** 0.06
71 C 64.28961218528417 122.97247645259864 16.222661426214785 C 0.0 **** -0.24
72 H 64.82264300851955 122.03053982707449 16.092929257763387 H 0.0 **** 0.06
73 H 63.463522226233295 123.02225358484085 15.513330395648183 H 0.0 **** 0.06
74 H 64.97190756184506 123.80375855770562 16.045856548434074 H 0.0 **** 0.06
75 H 63.899750604300095 123.03209767177849 17.238705788027147 H 0.0 **** 0.06
76 C 102.19833065221577 67.24177474407358 135.93276602171196 C 0.0 **** -0.24
77 H 102.6478711661284 66.29633671299322 136.2385162626693 H 0.0 **** 0.06
78 H 101.28848170615252 67.04531167524158 135.3658391812721 H 0.0 **** 0.06
79 H 102.9030215702326 67.79409903294203 135.31025133649675 H 0.0 **** 0.06
80 H 101.95588137186873 67.83071359583099 136.81738247816617 H 0.0 **** 0.06
81 C 134.5592058923575 128.44016561747168 110.54488163956879 C 0.0 **** -0.24
82 H 135.08893927999358 127.94484789119639 111.35973369043202 H 0.0 **** 0.06
83 H 135.28014785292382 128.82966629567255 109.826513501216 H 0.0 **** 0.06
84 H 133.9639582143341 129.26035657596822 110.94611085852316 H 0.0 **** 0.06
85 H 133.90334012116838 127.72336437814886 110.05062059851244 H 0.0 **** 0.06
86 C 22.125528565190777 11.82695103603362 60.315049032943875 C 0.0 **** -0.24
87 H 21.875341943161807 10.938309685345985 60.89396273163338 H 0.0 **** 0.06
88 H 21.237699347676184 12.179162909437167 59.78914123984413 H 0.0 **** 0.06
89 H 22.90377615970769 11.58108727698962 59.59212813991087 H 0.0 **** 0.06
90 H 22.486061609262762 12.607703928936985 60.98475773030168 H 0.0 **** 0.06
91 C 0.9880772114113654 108.37805943301278 82.06347587174 C 0.0 **** -0.24
92 H 1.9493458958202439 108.49510238953509 81.56290083412827 H 0.0 **** 0.06
93 H 0.8968694553193757 109.1248274666482 82.85341550732565 H 0.0 **** 0.06
94 H 0.9235305342685081 107.38053592808306 82.49728395109591 H 0.0 **** 0.06
95 H 0.1832918117706015 108.513585805033 81.34177932428793 H 0.0 **** 0.06
96 C 4.043862673384329 44.75570446003124 46.30307632157823 C 0.0 **** -0.24
97 H 4.032437709381554 43.68426713072152 46.09914131801217 H 0.0 **** 0.06
98 H 5.033898590790894 45.155886468484326 46.08413992619376 H 0.0 **** 0.06
99 H 3.80500378482299 44.92807013002178 47.352637379378734 H 0.0 **** 0.06
100 H 3.303640822316382 45.251374911310805 45.675741267168775 H 0.0 **** 0.06
101 C 126.30915176741124 11.922207138098855 29.756774456893652 C 0.0 **** -0.24
102 H 126.28838768849624 11.12920885806497 30.50356520939414 H 0.0 **** 0.06
103 H 125.46574668239984 11.803628616877944 29.076912800690195 H 0.0 **** 0.06
104 H 127.2414794761059 11.865844952685165 29.193966949437083 H 0.0 **** 0.06
105 H 126.2428741276344 12.889832160219584 30.25382070412246 H 0.0 **** 0.06
106 C 128.44237057011887 27.114769810931236 144.0392739306395 C 0.0 **** -0.24
107 H 128.44463284713507 27.53013407277264 143.03089683683365 H 0.0 **** 0.06
108 H 129.41168132213156 26.661705384783318 144.24738493443198 H 0.0 **** 0.06
109 H 127.66229744719331 26.358913358551746 144.11834829201047 H 0.0 **** 0.06
110 H 128.25070864840168 27.91108153123848 144.7592894160604 H 0.0 **** 0.06
111 C 117.16305580811388 49.58662850003728 89.73947878268108 C 0.0 **** -0.24
112 H 117.43115692924209 50.543847621404495 89.29196648947473 H 0.0 **** 0.06
113 H 116.15908800568707 49.30642879863737 89.42051063398195 H 0.0 **** 0.06
114 H 117.18874226171971 49.673329848611246 90.82560997549416 H 0.0 **** 0.06
115 H 117.87251112734111 48.823780056834295 89.41790091614888 H 0.0 **** 0.06
116 C 139.40411600168295 145.3823910306768 65.74758125418376 C 0.0 **** -0.24
117 H 140.2354566164916 145.10683840227173 66.39636582716216 H 0.0 **** 0.06
118 H 138.82222450883978 146.17532369424194 66.21963534913883 H 0.0 **** 0.06
119 H 138.7674669116202 144.5128848774033 65.58461231824313 H 0.0 **** 0.06
120 H 139.78982303443826 145.7351229842383 64.7915566155672 H 0.0 **** 0.06
121 C 134.09416939767982 3.7693017967441165 33.5232235627785 C 0.0 **** -0.24
122 H 134.36222936463417 2.7577374216353405 33.82845507085824 H 0.0 **** 0.06
123 H 133.4812168150193 3.7262815269632483 32.62238599335464 H 0.0 **** 0.06
124 H 135.0009696470999 4.339222112262178 33.31862132572573 H 0.0 **** 0.06
125 H 133.53297738047195 4.253970583330613 34.32221204130627 H 0.0 **** 0.06
126 C 0.4866586591398061 71.4587116708687 128.3553201424016 C 0.0 **** -0.24
127 H -0.4630112822460717 71.02236840766992 128.66572548726484 H 0.0 **** 0.06
128 H 0.36549542597450113 71.93754128194621 127.3832483318034 H 0.0 **** 0.06
129 H 1.2407871668117423 70.67530677202603 128.28328658201676 H 0.0 **** 0.06
130 H 0.8017913305810964 72.20117962016872 129.08937851688447 H 0.0 **** 0.06
131 C 107.8431597073574 103.97925984267822 46.39115965645671 C 0.0 **** -0.24
132 H 108.23032356686873 104.72408488776881 47.08664273003704 H 0.0 **** 0.06
133 H 107.11677399886405 104.44680524498811 45.726134835296534 H 0.0 **** 0.06
134 H 107.36124984712019 103.17663312362959 46.94969268695604 H 0.0 **** 0.06
135 H 108.66465439763003 103.57020403863321 45.80279690244217 H 0.0 **** 0.06
136 C 33.06912986486456 134.50012758941892 37.843419441351244 C 0.0 **** -0.24
137 H 33.799012983641134 134.26905610163413 38.61816999530731 H 0.0 **** 0.06
138 H 32.26469763541263 133.76390354744714 37.87045500659457 H 0.0 **** 0.06
139 H 33.55344686346531 134.47389460850857 36.86765013443838 H 0.0 **** 0.06
140 H 32.65717297980757 135.49389163465625 38.01779382394497 H 0.0 **** 0.06
141 C 123.7793513321862 94.52282351619706 144.38790461461733 C 0.0 **** -0.24
142 H 123.72875079312014 94.25559386655797 143.3323891976477 H 0.0 **** 0.06
143 H 122.91185439177194 94.11506914966034 144.90769916115994 H 0.0 **** 0.06
144 H 123.78757806663866 95.60732184143777 144.48833130749114 H 0.0 **** 0.06
145 H 124.69049563351 94.1107927500232 144.82298467202534 H 0.0 **** 0.06
146 C 109.95654079952759 99.50426157422223 5.500370417801491 C 0.0 **** -0.24
147 H 109.42567237915746 100.43979261980874 5.67537401878036 H 0.0 **** 0.06
148 H 110.83350575358334 99.69556675690981 4.880570637426331 H 0.0 **** 0.06
149 H 109.29749492177818 98.80210721869591 4.990508030123692 H 0.0 **** 0.06
150 H 110.27062435915853 99.08163280507276 6.454322880949832 H 0.0 **** 0.06
151 C 50.0759672735615 138.00330229279712 31.42858174984704 C 0.0 **** -0.24
152 H 50.30819354930895 138.82555730670032 30.75253922151616 H 0.0 **** 0.06
153 H 49.92429846236968 138.39310807829668 32.43603695829678 H 0.0 **** 0.06
154 H 50.90296834857662 137.29318279927077 31.434617405418763 H 0.0 **** 0.06
155 H 49.16837643740155 137.50177282857237 31.092815518323903 H 0.0 **** 0.06
156 C 38.86712285108683 102.31017492923613 42.306853939780325 C 0.0 **** -0.24
157 H 37.85678222496182 102.46504957522376 42.684159541847094 H 0.0 **** 0.06
158 H 39.51975487303588 102.01277401434129 43.12821261638791 H 0.0 **** 0.06
159 H 39.23618284941364 103.23564530604651 41.865066450305136 H 0.0 **** 0.06
160 H 38.85513713849383 101.52596685564086 41.54996627825565 H 0.0 **** 0.06
161 C 141.04145168551474 30.486493212990638 35.65638075317389 C 0.0 **** -0.24
162 H 140.0227991826721 30.86091209277538 35.749646015354756 H 0.0 **** 0.06
163 H 141.72332951471998 31.322371829284492 35.49718433289428 H 0.0 **** 0.06
164 H 141.10000544367335 29.802314511688678 34.8094428036014 H 0.0 **** 0.06
165 H 141.32042510656706 29.958938510931148 36.56863991274676 H 0.0 **** 0.06
166 C 65.98148110359239 108.22889410123328 45.11252786589736 C 0.0 **** -0.24
167 H 66.35307784883118 109.03852355640076 45.741604136237584 H 0.0 **** 0.06
168 H 66.59455359503097 108.15908096368203 44.21338539111784 H 0.0 **** 0.06
169 H 64.9481967244049 108.43069919897191 44.83353698928241 H 0.0 **** 0.06
170 H 66.03308723600227 107.28948872335259 45.661964115619384 H 0.0 **** 0.06
171 C 71.93437892264933 138.15670101734355 47.74065667774616 C 0.0 **** -0.24
172 H 72.25355526415618 138.98970836925832 47.11434117527476 H 0.0 **** 0.06
173 H 72.6453639283699 137.33600331712336 47.6446071580378 H 0.0 **** 0.06
174 H 70.9470076507217 137.82103727291408 47.42390960250893 H 0.0 **** 0.06
175 H 71.89220760162121 138.47992521903757 48.78103382806026 H 0.0 **** 0.06
176 C 105.74511569437249 18.68929577305189 93.51178535776354 C 0.0 **** -0.24
177 H 104.9119034296861 18.077724798018707 93.85968076288165 H 0.0 **** 0.06
178 H 105.47866414016107 19.743550183521634 93.58899362883112 H 0.0 **** 0.06
179 H 105.963714903925 18.44596613585601 92.47204165477629 H 0.0 **** 0.06
180 H 106.62298377459007 18.489522676949996 94.1248107766542 H 0.0 **** 0.06
181 C 58.1019612597257 26.23128665204939 90.42781517638188 C 0.0 **** -0.24
182 H 57.82499202454294 26.224444360713818 91.48273895972137 H 0.0 **** 0.06
183 H 58.556568338394285 25.275723222869573 90.16538069544147 H 0.0 **** 0.06
184 H 58.81444364470582 27.035421160345066 90.24505461998226 H 0.0 **** 0.06
185 H 57.21137520274006 26.389474892988716 89.82027191384547 H 0.0 **** 0.06
186 C 119.66994071815773 47.84979723034536 139.979121884691 C 0.0 **** -0.24
187 H 120.44917220076675 47.5114445793393 140.663020073908 H 0.0 **** 0.06
188 H 118.86890996799585 48.32311917978126 140.54809378482977 H 0.0 **** 0.06
189 H 119.27119751853652 46.99638170074007 139.43191110984796 H 0.0 **** 0.06
190 H 120.09054742466074 48.568233501456234 139.2759112506797 H 0.0 **** 0.06
191 C 110.66784355361393 106.74212272433651 84.17306061991789 C 0.0 **** -0.24
192 H 109.89268248233192 107.46297994155292 84.43218233415789 H 0.0 **** 0.06
193 H 111.64853208367263 107.18388410721384 84.35429763600987 H 0.0 **** 0.06
194 H 110.57786774877705 106.47344013658615 83.12058500825779 H 0.0 **** 0.06
195 H 110.55292001768176 105.84856587197426 84.78751458651814 H 0.0 **** 0.06
196 C 138.17701506819998 14.828673476264754 56.60647616376157 C 0.0 **** -0.24
197 H 137.61010004332246 15.66542408472921 56.19756822973257 H 0.0 **** 0.06
198 H 138.04237003379978 14.793254645516896 57.688181381138364 H 0.0 **** 0.06
199 H 139.23511916859013 14.960644805176543 56.37600433131972 H 0.0 **** 0.06
200 H 137.82227653440003 13.898627934473808 56.163791510651095 H 0.0 **** 0.06
201 C 14.342678523521244 13.01699502005144 36.35865240116503 C 0.0 **** -0.24
202 H 14.05835093130456 13.237397412888185 37.38751463513011 H 0.0 **** 0.06
203 H 14.692901995488796 11.98691903618817 36.29179518694688 H 0.0 **** 0.06
204 H 15.139830519539636 13.692980677996047 36.049322510097966 H 0.0 **** 0.06
205 H 13.478746346514257 13.15117243206305 35.70696646865499 H 0.0 **** 0.06
206 C 3.1695879435716563 86.37484655162496 37.69685139743905 C 0.0 **** -0.24
207 H 2.5414733608797917 85.67538510645201 37.14444693503816 H 0.0 **** 0.06
208 H 3.871384959886228 85.81984233137408 38.3184727532514 H 0.0 **** 0.06
209 H 2.542418844876096 87.00428544109897 38.32862234266423 H 0.0 **** 0.06
210 H 3.7201301000382614 86.99985740227785 36.993782649549814 H 0.0 **** 0.06
211 C 76.71528000477068 15.951753764183962 113.85105971623396 C 0.0 **** -0.24
212 H 77.58972216735108 15.32058151190708 113.69220948612214 H 0.0 **** 0.06
213 H 76.44257594594089 15.93504283764912 114.90588866117402 H 0.0 **** 0.06
214 H 75.88386844106432 15.577325024542489 113.25398784462878 H 0.0 **** 0.06
215 H 76.94534574047026 16.97423766597322 113.55124922199694 H 0.0 **** 0.06
216 C 36.22654601044795 43.6487035750817 80.52090284691677 C 0.0 **** -0.24
217 H 35.886296068459046 44.68109388242661 80.59922341002586 H 0.0 **** 0.06
218 H 36.089424031385335 43.146691152521115 81.47873163826732 H 0.0 **** 0.06
219 H 37.28255336275748 43.63378844854827 80.24931869372507 H 0.0 **** 0.06
220 H 35.64740820893317 43.13294283851418 79.75395876037643 H 0.0 **** 0.06
221 C 65.64837226389099 34.551389074508286 112.8488025921797 C 0.0 **** -0.24
222 H 66.45746435932728 34.93667942545341 113.46915105444229 H 0.0 **** 0.06
223 H 64.74637560031684 34.44741618016461 113.45250499061477 H 0.0 **** 0.06
224 H 65.93097280462595 33.57823056165502 112.44673249917172 H 0.0 **** 0.06
225 H 65.45933490846673 35.24253672018659 112.02786369423232 H 0.0 **** 0.06
226 C 2.1429742034533703 96.49528578448857 107.10672296482639 C 0.0 **** -0.24
227 H 1.7367559585657446 96.4391164536647 108.11616667221907 H 0.0 **** 0.06
228 H 3.171196763235894 96.85466394785809 107.14844347647525 H 0.0 **** 0.06
229 H 1.5410502791607819 97.18201604026913 106.5116094964786 H 0.0 **** 0.06
230 H 2.1214978307110073 95.50547930608107 106.65085588731532 H 0.0 **** 0.06
231 C 33.36275693052863 98.24714127285408 55.657796430614496 C 0.0 **** -0.24
232 H 34.0166285157579 98.67735054243433 54.89907063090584 H 0.0 **** 0.06
233 H 32.993558537280656 99.03931980101403 56.30938421156469 H 0.0 **** 0.06
234 H 33.920829557301595 97.52112253323148 56.24901942490149 H 0.0 **** 0.06
235 H 32.52093703732983 97.75178479616044 55.17336877726382 H 0.0 **** 0.06
236 C 65.88093200160742 50.66960738106047 75.07243283508518 C 0.0 **** -0.24
237 H 66.74514030628549 51.317453560056705 74.93413559940603 H 0.0 **** 0.06
238 H 66.18298126592865 49.770061609061386 75.61014056748417 H 0.0 **** 0.06
239 H 65.47429217183097 50.392548740188246 74.09961811915284 H 0.0 **** 0.06
240 H 65.11911756841985 51.197585006884324 75.64658901758713 H 0.0 **** 0.06
241 C 83.11855525153926 49.20050795601418 79.72634823272966 C 0.0 **** -0.24
242 H 83.36446093446204 49.66262783128492 78.7698752609638 H 0.0 **** 0.06
243 H 84.032852510725 48.843259189927295 80.20270087643641 H 0.0 **** 0.06
244 H 82.44279897897549 48.36251647462272 79.56146480560108 H 0.0 **** 0.06
245 H 82.63724607644927 49.935629090246024 80.37095995294837 H 0.0 **** 0.06
246 C 114.94118012622607 10.717022815011774 90.20962837057016 C 0.0 **** -0.24
247 H 114.10082486983839 11.331328621521664 90.53306819348606 H 0.0 **** 0.06
248 H 115.30699631040682 11.079019693569819 89.24871230712104 H 0.0 **** 0.06
249 H 114.61724650485718 9.681651548126752 90.11007341165234 H 0.0 **** 0.06
250 H 115.74071296479894 10.777844907885083 90.94885084469561 H 0.0 **** 0.06
251 C 62.95249404164204 50.1489990397815 21.281832714393715 C 0.0 **** -0.24
252 H 63.04520235727588 49.43003667465371 20.468464324876408 H 0.0 **** 0.06
253 H 63.30060296331854 49.69448970307582 22.209264829750964 H 0.0 **** 0.06
254 H 61.90711565825748 50.44157956044825 21.390080854216563 H 0.0 **** 0.06
255 H 63.554640433172466 51.02955255979845 21.059285885898163 H 0.0 **** 0.06
256 C 53.311870804685896 31.568519362284007 130.94086510328557 C 0.0 **** -0.24
257 H 52.75141282500864 31.58022770458092 131.87486435315066 H 0.0 **** 0.06
258 H 53.099494531063286 32.477848680467275 130.37849741931868 H 0.0 **** 0.06
259 H 53.01845194633856 30.699571436143174 130.35212343018298 H 0.0 **** 0.06
260 H 54.37909547333942 31.516480447981678 131.15774382771286 H 0.0 **** 0.06
261 C 129.6869146641992 112.65377756818229 15.784743480650889 C 0.0 **** -0.24
262 H 129.38843115558376 112.46388649645077 16.815503322311145 H 0.0 **** 0.06
263 H 129.87731788421956 113.71834711215483 15.651900877364483 H 0.0 **** 0.06
264 H 128.88995004181174 112.34012887802307 15.111870753531207 H 0.0 **** 0.06
265 H 130.59397331671067 112.09170137666219 15.56062099674665 H 0.0 **** 0.06
266 C 63.955410288551036 0.9046401711204908 80.2247589924745 C 0.0 **** -0.24
267 H 64.57755043464533 1.7407493143712998 80.54491529643286 H 0.0 **** 0.06
268 H 64.57167564442892 0.17392699653564136 79.7006252511016 H 0.0 **** 0.06
269 H 63.17492969082218 1.2685553960628226 79.55730442669105 H 0.0 **** 0.06
270 H 63.49812046588801 0.4368766897947012 81.09728709457495 H 0.0 **** 0.06
271 C 20.20189685042041 88.35281383858458 70.09336451721893 C 0.0 **** -0.24
272 H 19.19800697883599 88.46982656931944 69.68550420852883 H 0.0 **** 0.06
273 H 20.135852070047065 88.01077815544343 71.12629025650776 H 0.0 **** 0.06
274 H 20.720733737599517 89.3108817164345 70.06031719268938 H 0.0 **** 0.06
275 H 20.75135296724298 87.62128391030116 69.50124644113748 H 0.0 **** 0.06
276 C 104.9205351756654 4.901305300916221 111.45497087821673 C 0.0 **** -0.24
277 H 104.28199847975083 5.550029707885557 112.05366477357938 H 0.0 **** 0.06
278 H 105.87327276257184 4.758186038081874 111.96433896091656 H 0.0 **** 0.06
279 H 105.09358490994941 5.360194979639033 110.48158763189616 H 0.0 **** 0.06
280 H 104.43182599598714 3.9359429827172505 111.31994544496848 H 0.0 **** 0.06
281 C 46.0405552604677 123.76258033509767 31.043629299406128 C 0.0 **** -0.24
282 H 45.389052892935894 123.95498900035273 31.896281329295647 H 0.0 **** 0.06
283 H 46.724931651555494 124.60080969634856 30.913558620063696 H 0.0 **** 0.06
284 H 45.435715497176076 123.64258924354068 30.144143364220092 H 0.0 **** 0.06
285 H 46.610993935917406 122.85038405870786 31.22105141102643 H 0.0 **** 0.06
286 C 136.90854768995396 29.363622145475695 85.52459167836386 C 0.0 **** -0.24
287 H 136.72461124795132 28.6256768108098 84.74430331669232 H 0.0 **** 0.06
288 H 136.34531962410654 29.094699904838194 86.41895509934511 H 0.0 **** 0.06
289 H 136.59021780610567 30.346967175371127 85.17590756431967 H 0.0 **** 0.06
290 H 137.97218791555366 29.387886330123614 85.75909021593007 H 0.0 **** 0.06
291 C 106.64822433287621 3.2713156486005346 47.242987454473436 C 0.0 **** -0.24
292 H 107.33823053402328 2.6691095908898888 46.65179441478375 H 0.0 **** 0.06
293 H 106.77859407817282 3.038905350675691 48.300363036241265 H 0.0 **** 0.06
294 H 105.62384389243563 3.0458611204171575 46.94444446214706 H 0.0 **** 0.06
295 H 106.85271678078009 4.328340892604388 47.074650469476424 H 0.0 **** 0.06
296 C 29.37373529500877 69.44169190888667 137.58272472404414 C 0.0 **** -0.24
297 H 30.33786544577606 68.96811984454091 137.39864476525858 H 0.0 **** 0.06
298 H 28.575523151200827 68.78866001748688 137.23039163940243 H 0.0 **** 0.06
299 H 29.328130643525213 70.39157659722363 137.04937284900203 H 0.0 **** 0.06
300 H 29.253452907224613 69.61878219916439 138.65156151174992 H 0.0 **** 0.06
301 C 86.64117678929426 37.40104506132853 84.74094596935686 C 0.0 **** -0.24
302 H 87.00635903290208 36.874448418959915 85.62393515332997 H 0.0 **** 0.06
303 H 86.39520017432005 38.42906528732371 85.00831621352482 H 0.0 **** 0.06
304 H 85.75018810881693 36.899897004326505 84.36240574506402 H 0.0 **** 0.06
305 H 87.41337558765736 37.40026115917411 83.97281042139642 H 0.0 **** 0.06
306 C 124.98789255245961 114.02260810368345 37.26657307758995 C 0.0 **** -0.24
307 H 125.56581803438505 113.23429351208553 36.785574032416974 H 0.0 **** 0.06
308 H 125.53668732949887 114.96336829320121 37.207138017396545 H 0.0 **** 0.06
309 H 124.8204796997922 113.76527821095029 38.311920441485086 H 0.0 **** 0.06
310 H 124.02803270076461 114.1301232424422 36.76078015226406 H 0.0 **** 0.06
311 C 63.642595404743915 60.57024824931369 122.23213038803009 C 0.0 **** -0.24
312 H 63.679216273977374 59.66194607231105 121.62997509210079 H 0.0 **** 0.06
313 H 63.42936258971811 61.423697987655316 121.58759935082092 H 0.0 **** 0.06
314 H 64.60308032761853 60.71774223006011 122.72531707632412 H 0.0 **** 0.06
315 H 62.858046867166536 60.47632042780265 122.98300524785593 H 0.0 **** 0.06
316 C 93.94174040134963 103.67647961101493 55.44622510175748 C 0.0 **** -0.24
317 H 94.34636822479207 104.19163264493446 56.31696130577443 H 0.0 **** 0.06
318 H 93.81919695871349 102.61798709317313 55.674609794922574 H 0.0 **** 0.06
319 H 94.62722865709804 103.79066155184724 54.60599580708673 H 0.0 **** 0.06
320 H 92.97481633894077 104.10720920448668 55.18588152556035 H 0.0 **** 0.06
321 C 97.27546539705831 110.94018675907957 18.980104622559942 C 0.0 **** -0.24
322 H 96.74347551389727 110.8208207546672 19.92386116449461 H 0.0 **** 0.06
323 H 97.08437415736181 111.93696546405353 18.579718124410228 H 0.0 **** 0.06
324 H 96.92892073054038 110.19032536884824 18.270003558197963 H 0.0 **** 0.06
325 H 98.34482132988417 110.81554474628093 19.148045437390927 H 0.0 **** 0.06
326 C 98.0465138433375 26.320032018787785 86.33711126204281 C 0.0 **** -0.24
327 H 98.42436760641758 26.633183677498266 85.36426007468745 H 0.0 **** 0.06
328 H 96.99768310461486 26.034894517143584 86.24501534141795 H 0.0 **** 0.06
329 H 98.13891017524695 27.14348077346294 87.04473328624007 H 0.0 **** 0.06
330 H 98.62524786303341 25.46716498062878 86.69436569045668 H 0.0 **** 0.06
331 C 22.944810759090558 21.12034941270852 113.77526413352646 C 0.0 **** -0.24
332 H 22.197998158272355 21.01053364522295 112.98895863865962 H 0.0 **** 0.06
333 H 22.68503172740347 21.969331585833928 114.40705918816579 H 0.0 **** 0.06
334 H 23.923673992914416 21.286954702403932 113.32478397130106 H 0.0 **** 0.06
335 H 22.972567988686507 20.212003206570557 114.37871478271884 H 0.0 **** 0.06
336 C 6.4337182198761695 29.270141187146464 132.1393637670936 C 0.0 **** -0.24
337 H 6.008648246769667 29.280966155655506 133.14362134773904 H 0.0 **** 0.06
338 H 7.3087613213830025 28.61922498629957 132.12237449525045 H 0.0 **** 0.06
339 H 6.726655067157964 30.281171349808915 131.85799769061992 H 0.0 **** 0.06
340 H 5.690116317435667 28.898141025218933 131.43530415335195 H 0.0 **** 0.06
341 C 95.4076812894506 91.97390922716386 46.801949960452305 C 0.0 **** -0.24
342 H 95.85068295581782 91.97586876841652 45.80558826958355 H 0.0 **** 0.06
343 H 94.34207325257753 92.19290963562744 46.72616554053275 H 0.0 **** 0.06
344 H 95.89210001511901 92.73261071548637 47.41589898752707 H 0.0 **** 0.06
345 H 95.54566805913507 90.9947444792951 47.258838214378216 H 0.0 **** 0.06
346 C 5.075048203807853 92.6143081987339 101.35953394383347 C 0.0 **** -0.24
347 H 4.498725093755127 92.18063148479409 102.1770876726784 H 0.0 **** 0.06
348 H 4.639397290592797 93.57288251842807 101.0773168986002 H 0.0 **** 0.06
349 H 5.054922108072958 91.93937479963311 100.50436044871196 H 0.0 **** 0.06
350 H 6.106168544031107 92.7629963983351 101.6824079495795 H 0.0 **** 0.06
351 C 10.850922460696573 27.325323746755515 61.140049343753276 C 0.0 **** -0.24
352 H 10.377132235018749 26.4512618297571 61.586649249096936 H 0.0 **** 0.06
353 H 10.082131135672384 28.01124810885014 60.781657593903915 H 0.0 **** 0.06
354 H 11.476668611216326 27.011724798659117 60.30427942033232 H 0.0 **** 0.06
355 H 11.465730695298525 27.825830197206926 61.88699643084507 H 0.0 **** 0.06
356 C 29.24872454809281 94.17358658802554 89.8631683287357 C 0.0 **** -0.24
357 H 29.37811374534848 94.91818197718415 90.64793707905642 H 0.0 **** 0.06
358 H 28.37942340797585 94.43152597603576 89.25867872959248 H 0.0 **** 0.06
359 H 29.09974826046595 93.19188350360952 90.31401094415543 H 0.0 **** 0.06
360 H 30.13695437080323 94.1520096623613 89.23194087018982 H 0.0 **** 0.06
361 C 91.28619258890677 105.0310040777808 26.47157129942488 C 0.0 **** -0.24
362 H 90.31429373595623 104.60725164327387 26.72252816416227 H 0.0 **** 0.06
363 H 91.60221234365193 104.66148093093125 25.496565653753436 H 0.0 **** 0.06
364 H 92.01635073949163 104.73774202829097 27.225493919467823 H 0.0 **** 0.06
365 H 91.21127554780662 106.11861969750136 26.44235396449963 H 0.0 **** 0.06
366 C 29.37669088260523 131.9104932814974 129.70725753243534 C 0.0 **** -0.24
367 H 28.97796234742532 130.95684174732298 130.0545531477462 H 0.0 **** 0.06
368 H 29.586068781410887 131.8489034732076 128.6398684575542 H 0.0 **** 0.06
369 H 30.29691920375791 132.13776241349848 130.24661226783542 H 0.0 **** 0.06
370 H 28.645414310707423 132.69772635315877 129.89029730527741 H 0.0 **** 0.06
371 C 137.70955846641513 91.6884969901734 2.4087061352418786 C 0.0 **** -0.24
372 H 138.2420821734756 92.50157431461838 1.91536582622145 H 0.0 **** 0.06
373 H 137.153155938302 92.08155950691597 3.259804247239451 H 0.0 **** 0.06
374 H 138.42587279000395 90.9423588718036 2.7539620332034715 H 0.0 **** 0.06
375 H 137.01762849429343 91.22750391139576 1.7030920493667132 H 0.0 **** 0.06
376 C 56.74342003261228 85.42862179759331 24.968470686448867 C 0.0 **** -0.24
377 H 57.56658886356212 84.86161455191741 25.40255331753289 H 0.0 **** 0.06
378 H 56.144329047529254 84.77293012141024 24.33624498830509 H 0.0 **** 0.06
379 H 57.14329022124832 86.24595924036201 24.368636361495504 H 0.0 **** 0.06
380 H 56.120642504697344 85.83334723974978 25.76597325353577 H 0.0 **** 0.06
381 C 139.41957534864892 50.755114222073644 20.63044751415046 C 0.0 **** -0.24
382 H 138.8517346072854 50.1738367641596 19.904840009820475 H 0.0 **** 0.06
383 H 140.1314613904257 51.393844748312745 20.10659780122171 H 0.0 **** 0.06
384 H 139.95846176607128 50.07943246247834 21.295570464472036 H 0.0 **** 0.06
385 H 138.73799875380902 51.37300057844067 21.21499750277158 H 0.0 **** 0.06
386 C 98.56255915093703 93.83270934642326 121.75662530782508 C 0.0 **** -0.24
387 H 99.39061012774162 93.12458030236222 121.77684183388847 H 0.0 **** 0.06
388 H 97.9041244455816 93.59794230579784 120.92160795716835 H 0.0 **** 0.06
389 H 98.95363864571945 94.84406613133426 121.63969696219463 H 0.0 **** 0.06
390 H 98.00484562894975 93.76522508059182 122.69102908787782 H 0.0 **** 0.06
391 C 73.0224091101576 77.23977509380896 20.267344243513833 C 0.0 **** -0.24
392 H 73.74101273007079 77.47789115966336 21.052694834071303 H 0.0 **** 0.06
393 H 72.52035705627577 76.30202764911985 20.507732284204053 H 0.0 **** 0.06
394 H 73.54391804931277 77.14021263838072 19.31627717622797 H 0.0 **** 0.06
395 H 72.28449985332146 78.03923371139646 20.196904440415153 H 0.0 **** 0.06
396 C 111.01426361114596 90.60227013490581 142.17343320132335 C 0.0 **** -0.24
397 H 111.92918067102454 90.32087154115656 141.65141641028612 H 0.0 **** 0.06
398 H 110.50324778253884 91.38533456491118 141.6131771681841 H 0.0 **** 0.06
399 H 111.26227902528609 90.97018791023365 143.16860289720876 H 0.0 **** 0.06
400 H 110.3630983404355 89.73250250764673 142.2599025962544 H 0.0 **** 0.06
401 C 80.53874848398587 90.21993244053878 99.14556282946639 C 0.0 **** -0.24
402 H 81.00423598373777 90.9464601691748 99.81145526534658 H 0.0 **** 0.06
403 H 80.0557773812337 89.44242293406758 99.73738355796964 H 0.0 **** 0.06
404 H 81.30031501727544 89.77230071785108 98.507877088269 H 0.0 **** 0.06
405 H 79.79409493173898 90.72092712181312 98.5254673555454 H 0.0 **** 0.06
406 C 109.70131851510857 88.96316557927656 85.8166246660972 C 0.0 **** -0.24
407 H 109.32301089861502 88.14949401086241 86.43493591101873 H 0.0 **** 0.06
408 H 110.4654085082532 88.57898823740896 85.13935349661438 H 0.0 **** 0.06
409 H 110.13558699955163 89.73177449618706 86.45502975739862 H 0.0 **** 0.06
410 H 108.88274006608893 89.39045876101582 85.23697409914996 H 0.0 **** 0.06
411 C 49.06949211955839 115.47877249904974 81.82319210921946 C 0.0 **** -0.24
412 H 48.94779945736903 116.40070104623447 81.25498041850386 H 0.0 **** 0.06
413 H 50.106970310312846 115.38415254589938 82.14341071227796 H 0.0 **** 0.06
414 H 48.80282406296857 114.62793800200632 81.19578018093333 H 0.0 **** 0.06
415 H 48.419145627832734 115.50294181349966 82.69755998331246 H 0.0 **** 0.06
416 C 97.42713178105868 103.5186997132156 52.084064143636056 C 0.0 **** -0.24
417 H 96.4343690448986 103.45244600585397 52.527718778854904 H 0.0 **** 0.06
418 H 98.11963574166387 103.94836312401168 52.80701535834737 H 0.0 **** 0.06
419 H 97.38711420459941 104.15225611353046 51.19795874306703 H 0.0 **** 0.06
420 H 97.76693332454767 102.5220056596431 51.802726682179554 H 0.0 **** 0.06
421 C 125.00559845402253 74.81506468839837 21.39795484834361 C 0.0 **** -0.24
422 H 124.31202268776468 75.63070615419758 21.193021782488643 H 0.0 **** 0.06
423 H 125.32248813910854 74.36416659839287 20.45756517670292 H 0.0 **** 0.06
424 H 124.5104772165575 74.06386129409675 22.012627347188428 H 0.0 **** 0.06
425 H 125.8764820470444 75.20294808231608 21.927148738189487 H 0.0 **** 0.06
426 C 59.46292321612154 14.781499453732721 59.4222151209141 C 0.0 **** -0.24
427 H 60.34788664783365 15.35577824601694 59.6964349084857 H 0.0 **** 0.06
428 H 58.682804497112286 15.460151635555718 59.075539551033074 H 0.0 **** 0.06
429 H 59.104745401763324 14.230350649673284 60.291215412555985 H 0.0 **** 0.06
430 H 59.716689504516765 14.082402879368516 58.62644538543776 H 0.0 **** 0.06
431 C 16.340549945115498 120.23693348026003 69.09668419366403 C 0.0 **** -0.24
432 H 16.779861192529467 119.51302782478794 69.78235181411677 H 0.0 **** 0.06
433 H 16.831556150944408 120.16106153099688 68.12591218162768 H 0.0 **** 0.06
434 H 16.475827308467018 121.2429556615277 69.49455770068371 H 0.0 **** 0.06
435 H 15.276854317283494 120.03000398492586 68.98252791191797 H 0.0 **** 0.06
436 C 38.572326662538856 13.175168223419092 120.63855967430648 C 0.0 **** -0.24
437 H 37.67230193298892 13.136977109376431 121.25192319183544 H 0.0 **** 0.06
438 H 38.58141002463569 12.32760677325146 119.95236725990092 H 0.0 **** 0.06
439 H 39.45156703369943 13.13114417721053 121.28207283932709 H 0.0 **** 0.06
440 H 38.584679037388106 14.10493351448497 120.06976637220554 H 0.0 **** 0.06
441 C 1.1707826369323016 102.89135964285265 34.50314530418822 C 0.0 **** -0.24
442 H 0.6756652774646454 103.66830530477728 33.92156462363063 H 0.0 **** 0.06
443 H 1.7584731911450433 102.25823532985325 33.836894299535004 H 0.0 **** 0.06
444 H 0.4213434822631257 102.28596495907624 35.01297284954949 H 0.0 **** 0.06
445 H 1.828506645569007 103.35148710835276 35.24073309649995 H 0.0 **** 0.06
446 C 102.7408049916845 41.64723134780655 103.7942940420246 C 0.0 **** -0.24
447 H 102.76963675888175 41.613422780960505 102.70541774711356 H 0.0 **** 0.06
448 H 103.02523295603388 42.64325002676807 104.13479728033391 H 0.0 **** 0.06
449 H 103.43629946651201 40.91161381912501 104.19917823888781 H 0.0 **** 0.06
450 H 101.73106267308293 41.420504601617836 104.1378582560153 H 0.0 **** 0.06
451 C 107.12846144454025 89.96359012407017 130.87765580807212 C 0.0 **** -0.24
452 H 107.21582769889736 90.32247943173314 131.90357419448753 H 0.0 **** 0.06
453 H 107.75202507400908 90.57469846055766 130.22454637651472 H 0.0 **** 0.06
454 H 106.08960867486158 90.03011880269636 130.5566204623058 H 0.0 **** 0.06
455 H 107.45849777839399 88.92578829003816 130.82851031169673 H 0.0 **** 0.06
456 C 85.85147581442567 23.24108395022597 22.042965260171314 C 0.0 **** -0.24
457 H 86.27911326224185 22.4627318353007 21.41080459632809 H 0.0 **** 0.06
458 H 84.7800138899467 23.31421458787821 21.854107663375004 H 0.0 **** 0.06
459 H 86.32604426953753 24.195367300915507 21.81594558220327 H 0.0 **** 0.06
460 H 86.02029359344124 22.99080819920323 23.09042481136359 H 0.0 **** 0.06
461 C 27.829234795934553 9.154003354429204 87.38312590269297 C 0.0 **** -0.24
462 H 27.251788167939665 8.265893165497342 87.63686890972113 H 0.0 **** 0.06
463 H 27.152047071846653 9.991675146306207 87.21532940004505 H 0.0 **** 0.06
464 H 28.405677768253042 8.965837559474746 86.47712973933233 H 0.0 **** 0.06
465 H 28.50736963420607 9.39272007203131 88.20218350082195 H 0.0 **** 0.06
466 C 31.344779923750934 70.42467525288818 6.749796010782632 C 0.0 **** -0.24
467 H 32.276271895904756 69.86929622244966 6.862249396246455 H 0.0 **** 0.06
468 H 30.984616739827914 70.3269793889584 5.725634452019392 H 0.0 **** 0.06
469 H 31.520966566593756 71.4768051601962 6.974352988895191 H 0.0 **** 0.06
470 H 30.599263803898396 70.02654065214679 7.438022314390707 H 0.0 **** 0.06
471 C 4.293583859292763 9.01255500150603 32.76506443128275 C 0.0 **** -0.24
472 H 4.443151368060963 10.00519199298543 32.340069996790646 H 0.0 **** 0.06
473 H 5.197750556967943 8.702346736294402 33.28913725483466 H 0.0 **** 0.06
474 H 4.07467856590991 8.304800655750341 31.966517572554494 H 0.0 **** 0.06
475 H 3.4588644674536226 9.040054142844667 33.46565720960942 H 0.0 **** 0.06
476 C 140.06168611765716 133.07819290203773 54.21163736855192 C 0.0 **** -0.24
477 H 140.8240673323301 133.8528240139876 54.1306965973985 H 0.0 **** 0.06
478 H 139.6611796606197 132.85761048268407 53.221601045988535 H 0.0 **** 0.06
479 H 139.25686009534675 133.4268592417205 54.85976375256726 H 0.0 **** 0.06
480 H 140.5038213052691 132.17595828113014 54.634166726695895 H 0.0 **** 0.06
481 C 61.5089983333511 84.6545973652369 131.3000189368705 C 0.0 **** -0.24
482 H 61.29314501566931 83.88745325019073 130.555922721248 H 0.0 **** 0.06
483 H 60.63821991416164 85.30033716098035 131.41748381646897 H 0.0 **** 0.06
484 H 62.36178280652874 85.24882444751807 130.97236256794608 H 0.0 **** 0.06
485 H 61.74033990901603 84.18001739994227 132.25302826471207 H 0.0 **** 0.06
486 C 18.53837828127419 78.28703841741732 41.913200927837764 C 0.0 **** -0.24
487 H 17.90896620776877 79.06770054479642 42.3404291825926 H 0.0 **** 0.06
488 H 19.028269647493204 78.66587353209167 41.016895595982405 H 0.0 **** 0.06
489 H 17.923270013310855 77.42552485223513 41.65604138468663 H 0.0 **** 0.06
490 H 19.29208747899463 77.98956781054609 42.64258258369729 H 0.0 **** 0.06
491 C 62.94521108574355 138.61235130823937 10.666687655320267 C 0.0 **** -0.24
492 H 62.31427429908541 137.7445552461201 10.475675504127594 H 0.0 **** 0.06
493 H 63.987945861244896 138.29687621745148 10.72609009306342 H 0.0 **** 0.06
494 H 62.651198184936504 139.07521322084762 11.609335103413287 H 0.0 **** 0.06
495 H 62.82930315669853 139.3314652366817 9.856543622757691 H 0.0 **** 0.06
496 C 57.47758940464867 10.380187077398574 57.94666178890094 C 0.0 **** -0.24
497 H 56.874813522629566 10.805101534680375 57.14385306375907 H 0.0 **** 0.06
498 H 56.88812688726398 9.643142757750581 58.49166866203011 H 0.0 **** 0.06
499 H 57.78754551895874 11.173095893303866 58.626864468192565 H 0.0 **** 0.06
500 H 58.36000328070956 9.89949969543008 57.523273873912416 H 0.0 **** 0.06
501 C 49.801955534903044 9.900885612659692 77.73764599527189 C 0.0 **** -0.24
502 H 50.891075540517676 9.932875938857194 77.71969874672465 H 0.0 **** 0.06
503 H 49.43166481849309 9.592205667076541 76.76019709125389 H 0.0 **** 0.06
504 H 49.41321751625827 10.890758134423322 77.97831189257477 H 0.0 **** 0.06
505 H 49.471993572095045 9.187793252380061 78.49336373487115 H 0.0 **** 0.06
506 C 59.623766359132915 143.8274402980758 12.180029611546388 C 0.0 **** -0.24
507 H 60.38414795931777 143.63925807006842 11.422022902865137 H 0.0 **** 0.06
508 H 59.618626106726 143.00896012898374 12.900147452361125 H 0.0 **** 0.06
509 H 58.64613197305853 143.89856557248643 11.703808992933489 H 0.0 **** 0.06
510 H 59.84702909980122 144.76261740501005 12.693801384947506 H 0.0 **** 0.06
511 C 115.74921187925217 125.890021050175 61.98276246892486 C 0.0 **** -0.24
512 H 114.95353511761691 126.08210885276668 61.26246413125554 H 0.0 **** 0.06
513 H 115.66664965138811 126.59271797148006 62.81249462652188 H 0.0 **** 0.06
514 H 116.71614949942482 126.01387835414891 61.496232042198955 H 0.0 **** 0.06
515 H 115.65937151266151 124.8712111393034 62.35904155400624 H 0.0 **** 0.06
516 C 53.686544064978136 94.25313975720036 21.775327215390405 C 0.0 **** -0.24
517 H 53.10600712619538 95.17491780348928 21.81022684814917 H 0.0 **** 0.06
518 H 54.52371064780124 94.37822735618678 21.087293655546148 H 0.0 **** 0.06
519 H 53.051734989286444 93.43664893135343 21.43096538460327 H 0.0 **** 0.06
520 H 54.06636879747282 94.02448855981532 22.77100019918919 H 0.0 **** 0.06
521 C 116.47915398810879 94.18698820642162 28.10879067949793 C 0.0 **** -0.24
522 H 116.0343169002261 94.33357110168288 27.12439780604393 H 0.0 **** 0.06
523 H 115.87498028014089 94.69561325509281 28.85956398455869 H 0.0 **** 0.06
524 H 117.48933479400976 94.59843844158864 28.115303275157885 H 0.0 **** 0.06
525 H 116.51943521934929 93.12170477670891 28.33366061043961 H 0.0 **** 0.06
526 C 47.04034774080252 23.81326871096232 101.32132261082637 C 0.0 **** -0.24
527 H 46.68925204663839 24.763317752823383 101.72361045592066 H 0.0 **** 0.06
528 H 48.09523268940218 23.897754394247585 101.05989227956144 H 0.0 **** 0.06
529 H 46.464659644790615 23.560861822514966 100.43082843602636 H 0.0 **** 0.06
530 H 46.91279163005413 23.031320175328858 102.06966665370783 H 0.0 **** 0.06
531 C 58.86307282225121 97.01783704459513 60.9404778533696 C 0.0 **** -0.24
532 H 58.635814182210396 98.07166709764797 61.09943885090644 H 0.0 **** 0.06
533 H 59.928303396917016 96.84843212827013 61.09984762649054 H 0.0 **** 0.06
534 H 58.59814048313115 96.73836997743771 59.92099078110999 H 0.0 **** 0.06
535 H 58.289795838765 96.41321751043569 61.64383171250921 H 0.0 **** 0.06
536 C 48.263962985889094 26.353431517534773 59.67495139248882 C 0.0 **** -0.24
537 H 48.22351387468484 26.02420714366758 60.713356461112724 H 0.0 **** 0.06
538 H 48.17828770875158 25.488228759853286 59.01633018032837 H 0.0 **** 0.06
539 H 49.213309334107834 26.857107522048295 59.490655637164494 H 0.0 **** 0.06
540 H 47.442890750373806 27.042298613535166 59.48037406320188 H 0.0 **** 0.06
541 C 73.77100358446948 61.96848297365577 136.99733691590643 C 0.0 **** -0.24
542 H 72.81845311049327 61.50466218223022 136.7423648825949 H 0.0 **** 0.06
543 H 74.58169902439234 61.266023046915336 136.80196065315508 H 0.0 **** 0.06
544 H 73.77068428649693 62.23886001258303 138.05352680168392 H 0.0 **** 0.06
545 H 73.91145421604406 62.86460345516966 136.39322220650632 H 0.0 **** 0.06
546 C 96.86308351185451 144.47526668814135 32.17884894703454 C 0.0 **** -0.24
547 H 96.62057090151649 145.3594938331681 32.767524449514866 H 0.0 **** 0.06
548 H 97.94160110953565 144.3158884083506 32.191066973720666 H 0.0 **** 0.06
549 H 96.5278986254411 144.62017600375214 31.151665762833574 H 0.0 **** 0.06
550 H 96.36199932336832 143.60629310989924 32.60569958352778 H 0.0 **** 0.06
551 C 41.20756086924469 108.11328394818068 128.59652975146932 C 0.0 **** -0.24
552 H 42.29045254196116 108.01752765702096 128.67130424082777 H 0.0 **** 0.06
553 H 40.960555871447966 109.02451429534071 128.05141627767617 H 0.0 **** 0.06
554 H 40.77720059332353 108.16054103813062 129.59701049091305 H 0.0 **** 0.06
555 H 40.80220229200458 107.25153679880626 128.06632774467275 H 0.0 **** 0.06
556 C 125.40933500664272 115.73716609211077 57.03684646848217 C 0.0 **** -0.24
557 H 124.49538862038133 115.77015959623965 57.62914646762937 H 0.0 **** 0.06
558 H 126.19390269662222 115.23981656378315 57.60589727696538 H 0.0 **** 0.06
559 H 125.72206360128902 116.7538786772722 56.79613232178363 H 0.0 **** 0.06
560 H 125.2239745965449 115.18575635705459 56.114194427583755 H 0.0 **** 0.06
561 C 23.76685460286859 110.3317312164043 48.71541034541541 C 0.0 **** -0.24
562 H 24.829728021243113 110.11185182087421 48.816460091344 H 0.0 **** 0.06
563 H 23.63335303073046 111.39320805967019 48.50577934751672 H 0.0 **** 0.06
564 H 23.25368908466413 110.07718397564169 49.642142075682344 H 0.0 **** 0.06
565 H 23.350825857187715 109.74415975558112 47.89642512008261 H 0.0 **** 0.06
566 C 68.76111202779663 121.74407456225616 142.04548912978345 C 0.0 **** -0.24
567 H 69.58694400111031 122.42255983367453 142.25577492913956 H 0.0 **** 0.06
568 H 68.97421425614084 121.1834422365534 141.13431416674933 H 0.0 **** 0.06
569 H 67.84467048102886 122.31843326151387 141.91255364627466 H 0.0 **** 0.06
570 H 68.63848695957864 121.05073955300297 142.8784648913659 H 0.0 **** 0.06
571 C 129.40149340598163 131.28683147665487 94.80224718553289 C 0.0 **** -0.24
572 H 128.6885016998908 130.93332794172107 94.0578521656792 H 0.0 **** 0.06
573 H 130.40216293220655 130.94536696382522 94.53689761814657 H 0.0 **** 0.06
574 H 129.13002877009114 130.8940332316095 95.78200244982328 H 0.0 **** 0.06
575 H 129.38568287971555 132.3766782154999 94.83152248519603 H 0.0 **** 0.06
576 C 135.28674460993125 136.37886640938532 26.408365944749534 C 0.0 **** -0.24
577 H 134.25749110800652 136.7129915267712 26.28305245732159 H 0.0 **** 0.06
578 H 135.71055080399557 136.13132836010988 25.434381764742994 H 0.0 **** 0.06
579 H 135.30681967118886 135.496086422895 27.048432691261368 H 0.0 **** 0.06
580 H 135.87280277615628 137.17413886838668 26.86842291419846 H 0.0 **** 0.06
581 C 130.25417060078743 90.73480494574943 81.61076794387822 C 0.0 **** -0.24
582 H 129.40482129189 90.78362485093055 82.2928378111443 H 0.0 **** 0.06
583 H 130.89807077913454 91.59932183660787 81.77120792096616 H 0.0 **** 0.06
584 H 129.8939150332118 90.73452279334862 80.58225993639172 H 0.0 **** 0.06
585 H 130.81777233943703 89.82150327478641 81.797997691776 H 0.0 **** 0.06
586 C 23.35271679247863 133.60344863461592 109.81070881798159 C 0.0 **** -0.24
587 H 24.41776589999222 133.7270012456554 110.00909753859482 H 0.0 **** 0.06
588 H 22.88350299218766 134.5820662116156 109.72062635113322 H 0.0 **** 0.06
589 H 22.89260195318127 133.052340984637 110.63136747072146 H 0.0 **** 0.06
590 H 23.219735480305587 133.0487174181485 108.88194074092753 H 0.0 **** 0.06
591 C 5.626500571116509 36.98609155132024 63.5873205983829 C 0.0 **** -0.24
592 H 5.046039411912631 37.86038591172155 63.8839131850296 H 0.0 **** 0.06
593 H 5.4108410895783265 36.74268692927596 62.54750714164484 H 0.0 **** 0.06
594 H 5.360885651464258 36.14121697244548 64.2222509336 H 0.0 **** 0.06
595 H 6.689866794243898 37.20234881028705 63.69669623536356 H 0.0 **** 0.06
596 C 141.92082591428812 9.475819913037071 124.5733258780968 C 0.0 **** -0.24
597 H 141.39407920048964 8.521898126417597 124.60513838707044 H 0.0 **** 0.06
598 H 141.9969253394664 9.881873343976764 125.58245938029415 H 0.0 **** 0.06
599 H 141.37059375919503 10.173211190371433 123.94123102578754 H 0.0 **** 0.06
600 H 142.9195891697789 9.325612410249533 124.1647056185422 H 0.0 **** 0.06
601 C 6.940385917474146 67.61658446539863 27.689346850122774 C 0.0 **** -0.24
602 H 7.293521979648688 68.55953070520908 28.107880298073866 H 0.0 **** 0.06
603 H 5.890248098643212 67.71241732417317 27.413686706235325 H 0.0 **** 0.06
604 H 7.05043489718679 66.82653055353896 28.432118639186825 H 0.0 **** 0.06
605 H 7.527736611936973 67.3692425528017 26.80541302341024 H 0.0 **** 0.06
606 C 62.88477171149336 35.8217701118219 31.81834385099134 C 0.0 **** -0.24
607 H 63.658608868532866 36.46154987333592 32.2435400926129 H 0.0 **** 0.06
608 H 63.28780386746712 34.82266220028231 31.656958295935254 H 0.0 **** 0.06
609 H 62.55283490185661 36.23840871504833 30.867497851195026 H 0.0 **** 0.06
610 H 62.04046551291654 35.76766322434242 32.50596686267096 H 0.0 **** 0.06
611 C 79.43738338801867 55.1806589471971 86.72691546304517 C 0.0 **** -0.24
612 H 78.9611692803415 56.005943384581556 86.19873030332482 H 0.0 **** 0.06
613 H 79.28604224109884 54.256350053324525 86.16974600559077 H 0.0 **** 0.06
614 H 78.9960753924602 55.08223339580017 87.71992385440124 H 0.0 **** 0.06
615 H 80.50430189514069 55.37824095004717 86.82289504742832 H 0.0 **** 0.06
616 C 86.20492228521908 27.604719238103428 41.64856855738094 C 0.0 **** -0.24
617 H 85.52096970221962 26.793627893226756 41.89597821189889 H 0.0 **** 0.06
618 H 86.52408136772434 27.50645963557602 40.61058519383127 H 0.0 **** 0.06
619 H 87.07643487931318 27.55696595351648 42.3026567670243 H 0.0 **** 0.06
620 H 85.69977080878002 28.56074699646885 41.786230491799785 H 0.0 **** 0.06
621 C 55.41366562358519 97.07442579216743 16.010848822805144 C 0.0 **** -0.24
622 H 55.5453980387189 97.66173584753417 16.918625386350698 H 0.0 **** 0.06
623 H 56.27532933015122 97.21716574947368 15.357770793551367 H 0.0 **** 0.06
624 H 54.509675616668915 97.4003162060518 15.496159196976066 H 0.0 **** 0.06
625 H 55.32399093513281 96.01909252461257 16.269240115237437 H 0.0 **** 0.06
626 C 143.16402346931233 55.52450166271069 56.810649591047735 C 0.0 **** -0.24
627 H 143.944205274559 55.86892804940561 57.48900693362697 H 0.0 **** 0.06
628 H 143.6220186653507 55.05435347416727 55.939785063261496 H 0.0 **** 0.06
629 H 142.5609885391509 56.37432501959859 56.48919807266063 H 0.0 **** 0.06
630 H 142.5299603250278 54.80204216701128 57.323145482250624 H 0.0 **** 0.06
631 C 139.13147091519335 47.29708798899776 15.175011632824663 C 0.0 **** -0.24
632 H 138.05757759577833 47.11485133868035 15.220419301954934 H 0.0 **** 0.06
633 H 139.5479176330985 46.79020654617864 14.303060750036337 H 0.0 **** 0.06
634 H 139.6038329214764 46.91190033064579 16.078554929984165 H 0.0 **** 0.06
635 H 139.3151544609343 48.367950407632264 15.096227940120656 H 0.0 **** 0.06
636 C 113.65969648718915 69.26286725861553 89.0520911335604 C 0.0 **** -0.24
637 H 114.72189547603732 69.24815072447461 89.29435666488234 H 0.0 **** 0.06
638 H 113.53346303538787 69.21376733678224 87.97043165857929 H 0.0 **** 0.06
639 H 113.2136245267139 70.18271535111813 89.4295565842209 H 0.0 **** 0.06
640 H 113.17024818537062 68.40481838358016 89.51487560413477 H 0.0 **** 0.06
641 C 54.497245885127484 53.68561756919591 106.07286577855278 C 0.0 **** -0.24
642 H 53.603630285316456 53.37035414840581 105.53337892022866 H 0.0 **** 0.06
643 H 54.7150403455658 54.72707630624811 105.83717499084044 H 0.0 **** 0.06
644 H 55.339430276494056 53.06066406887928 105.77638061165653 H 0.0 **** 0.06
645 H 54.329014856180265 53.58216318144146 107.14531365732925 H 0.0 **** 0.06
646 C 86.80978978290719 100.43722698129639 128.97094299945417 C 0.0 **** -0.24
647 H 85.89834537887991 100.96575417176763 129.2507822674894 H 0.0 **** 0.06
648 H 87.64022846992626 101.14183282297014 128.92736448642108 H 0.0 **** 0.06
649 H 86.67512893024524 99.97251165164545 127.99419123205169 H 0.0 **** 0.06
650 H 87.02523605010165 99.66691476852665 129.71203606863128 H 0.0 **** 0.06
651 C 22.75596689384173 104.90404253330422 53.710114766816616 C 0.0 **** -0.24
652 H 21.75268892109426 105.26804371249567 53.48846334830964 H 0.0 **** 0.06
653 H 23.48370975511793 105.4730782761706 53.1313345317223 H 0.0 **** 0.06
654 H 22.826701593987508 103.84924356091179 53.44777804962891 H 0.0 **** 0.06
655 H 22.959556566204512 105.02916716961671 54.77399117111233 H 0.0 **** 0.06
656 C 99.37905224336787 91.7692616345542 65.56120757835362 C 0.0 **** -0.24
657 H 99.61513000064288 92.75378092135054 65.96571590492164 H 0.0 **** 0.06
658 H 100.03112617103783 91.02295335303893 66.01673200918538 H 0.0 **** 0.06
659 H 99.5307960060961 91.77423511707778 64.48186982407574 H 0.0 **** 0.06
660 H 98.33915679569473 91.5260771467496 65.78051257523177 H 0.0 **** 0.06
661 C 79.35960208867166 116.9327389852473 9.79193823352611 C 0.0 **** -0.24
662 H 78.36036483866985 116.58968031387293 9.522500687156565 H 0.0 **** 0.06
663 H 80.08832023233684 116.50813405829165 9.099578838300204 H 0.0 **** 0.06
664 H 79.59244419289264 116.61126064050315 10.80704813931689 H 0.0 **** 0.06
665 H 79.39702220746653 118.02027591080424 9.736792732340575 H 0.0 **** 0.06
666 C 32.00066079275526 16.05434488920593 123.61211737416775 C 0.0 **** -0.24
667 H 32.85986035531048 16.54663364906392 124.06860266649616 H 0.0 **** 0.06
668 H 31.32273525068608 15.708990005783079 124.39316852160053 H 0.0 **** 0.06
669 H 32.341271053037744 15.202574996819806 123.02343529002101 H 0.0 **** 0.06
670 H 31.479663566747348 16.759423554520282 122.96433742187739 H 0.0 **** 0.06
671 C 106.67340373414066 104.38120681570916 12.638580112212622 C 0.0 **** -0.24
672 H 105.93408642077674 104.5097460163621 13.429079622706752 H 0.0 **** 0.06
673 H 106.17968094043982 104.42647905054042 11.66823115797402 H 0.0 **** 0.06
674 H 107.16284705776428 103.41357493615152 12.752385675801975 H 0.0 **** 0.06
675 H 107.41786227139994 105.17461043057682 12.704913262919547 H 0.0 **** 0.06
676 C 21.030537780484337 141.31957171615764 64.1666559618676 C 0.0 **** -0.24
677 H 21.166388394069656 140.7275797883893 63.2614040205421 H 0.0 **** 0.06
678 H 19.996917279887782 141.23927535743942 64.50219585744544 H 0.0 **** 0.06
679 H 21.265108448967396 142.36364453860463 63.95699079631365 H 0.0 **** 0.06
680 H 21.695968676924224 140.94792041444475 64.94607878833868 H 0.0 **** 0.06
681 C 42.83248825200542 7.098634540117615 24.620067044041335 C 0.0 **** -0.24
682 H 42.21126277952942 6.875409750752397 23.752477557078628 H 0.0 **** 0.06
683 H 42.23378229439487 7.613892809940523 25.37198861014418 H 0.0 **** 0.06
684 H 43.66317616467279 7.736447926597492 24.317495424241272 H 0.0 **** 0.06
685 H 43.220658183277436 6.1697079958938446 25.038284084666827 H 0.0 **** 0.06
686 C 96.54072576637091 104.8118510027797 86.82143235460555 C 0.0 **** -0.24
687 H 95.60961281710635 104.60697759442536 87.35025413960281 H 0.0 **** 0.06
688 H 97.3584664435939 104.88125564781807 87.53965316419729 H 0.0 **** 0.06
689 H 96.452487221534 105.75353311273186 86.2800178728867 H 0.0 **** 0.06
690 H 96.74347375565213 104.0046453667665 86.11745421722878 H 0.0 **** 0.06
691 C 39.96787363784304 24.477133594843224 127.17527979919717 C 0.0 **** -0.24
692 H 39.597502771302985 23.515162995811295 126.82043913006646 H 0.0 **** 0.06
693 H 40.91899372766363 24.700676557920588 126.69277696545088 H 0.0 **** 0.06
694 H 40.10813611108179 24.43653495377123 128.2560180368943 H 0.0 **** 0.06
695 H 39.24475698184318 25.256528990585934 126.93254317938843 H 0.0 **** 0.06
696 C 89.21621435812835 3.064496589099882 6.489965557825435 C 0.0 **** -0.24
697 H 89.34133633795534 2.411806574133177 7.353709798895604 H 0.0 **** 0.06
698 H 89.87584014828064 3.927017375104846 6.589387101660858 H 0.0 **** 0.06
699 H 88.18145222979916 3.4012197557908728 6.436573671081213 H 0.0 **** 0.06
700 H 89.46857153119419 2.516922860800932 5.582054905010132 H 0.0 **** 0.06
701 C 105.8969745065462 71.68638105504652 66.44484216966032 C 0.0 **** -0.24
702 H 105.0193880984653 71.50502738913139 65.82549995698429 H 0.0 **** 0.06
703 H 106.7799172168788 71.76780324788916 65.81031831247509 H 0.0 **** 0.06
704 H 106.02668096433007 70.8587750698818 67.14220467448456 H 0.0 **** 0.06
705 H 105.76296256857154 72.61362446955792 67.00224540055035 H 0.0 **** 0.06
706 C 28.75095208090937 77.86687531341538 111.31670043504766 C 0.0 **** -0.24
707 H 27.911461095471793 78.55041316318821 111.44855203492449 H 0.0 **** 0.06
708 H 29.625521938181805 78.26321042045171 111.83249393975427 H 0.0 **** 0.06
709 H 28.97062919298827 77.76450940830861 110.25338903211582 H 0.0 **** 0.06
710 H 28.49452272663558 76.8922749817152 111.73104333688201 H 0.0 **** 0.06
711 C 96.96711140222129 94.2088842961187 4.858797395188731 C 0.0 **** -0.24
712 H 97.96884556896043 93.82866246213236 5.060006070519336 H 0.0 **** 0.06
713 H 96.62350517211075 93.83316098946894 3.894518030030781 H 0.0 **** 0.06
714 H 96.99075341917074 95.29881786466676 4.836553132793682 H 0.0 **** 0.06
715 H 96.28725476121821 93.87587687676641 5.641793448099747 H 0.0 **** 0.06
716 C 119.92324695370472 38.19759694175041 28.593651935293337 C 0.0 **** -0.24
717 H 119.3381617629109 37.594140617735114 27.899936817644118 H 0.0 **** 0.06
718 H 120.44794807292296 37.54332036473699 29.291236250012417 H 0.0 **** 0.06
719 H 119.25945602571379 38.86063816913326 29.147716726649094 H 0.0 **** 0.06
720 H 120.64855084773241 38.790994007245565 28.036742525687572 H 0.0 **** 0.06
721 C 91.44692510137567 18.47686327302958 121.03162822551785 C 0.0 **** -0.24
722 H 91.57458675759567 19.54632602430857 120.86225629982731 H 0.0 **** 0.06
723 H 90.61130875047164 18.31418179168938 121.7132131413605 H 0.0 **** 0.06
724 H 92.35866647800742 18.067187571641995 121.46870655652101 H 0.0 **** 0.06
725 H 91.24524223144503 17.980515348776436 120.08232392264684 H 0.0 **** 0.06
726 C 40.8076924761387 101.80694056078886 57.88588652668571 C 0.0 **** -0.24
727 H 41.2271349770885 101.54688759600532 56.913709914201135 H 0.0 **** 0.06
728 H 41.31175690911519 101.2322368589777 58.66378604442437 H 0.0 **** 0.06
729 H 39.74237221637267 101.57569898151658 57.89552959452645 H 0.0 **** 0.06
730 H 40.95052146632355 102.8715443072993 58.07036586510064 H 0.0 **** 0.06
731 C 139.35331566166192 88.38366824865646 40.40824362983869 C 0.0 **** -0.24
732 H 139.59613207551155 89.01444116992613 39.55274398980638 H 0.0 **** 0.06
733 H 138.38740903404337 87.90584414350397 40.24406563511343 H 0.0 **** 0.06
734 H 139.30788970809226 88.99605453686642 41.30908070411344 H 0.0 **** 0.06
735 H 140.1220171216752 87.62017627838183 40.525831696050744 H 0.0 **** 0.06
736 C 76.8170390032777 126.41849825136651 112.689814191802 C 0.0 **** -0.24
737 H 77.55389794070302 126.23517705775114 113.47196772708661 H 0.0 **** 0.06
738 H 75.92047512358477 125.83025904418687 112.89147937679091 H 0.0 **** 0.06
739 H 77.23240836081999 126.12984092444792 111.72446289522232 H 0.0 **** 0.06
740 H 76.56051227283731 127.47742938834813 112.67391610459454 H 0.0 **** 0.06
741 C 15.085150619317467 72.0268700453993 2.205002284323484 C 0.0 **** -0.24
742 H 14.530129042639956 71.30000361597419 1.611235346596402 H 0.0 **** 0.06
743 H 14.391389790912868 72.74871873753179 2.6361174436871693 H 0.0 **** 0.06
744 H 15.801392705782995 72.54584404517718 1.5669770381136914 H 0.0 **** 0.06
745 H 15.618182663364223 71.51170142209381 3.003865857559134 H 0.0 **** 0.06
746 C 27.353513350264308 49.38358065650377 70.82455271687554 C 0.0 **** -0.24
747 H 26.646899099680994 49.52748503239448 70.00645872486136 H 0.0 **** 0.06
748 H 27.337407306676525 50.2577216205604 71.47576242364046 H 0.0 **** 0.06
749 H 28.35612554859118 49.24929895892393 70.41938352716359 H 0.0 **** 0.06
750 H 27.070796779882485 48.499878255874876 71.39647255195882 H 0.0 **** 0.06
751 C 15.764312557800167 22.30947304151738 21.69377200826917 C 0.0 **** -0.24
752 H 16.23983573071257 22.915648873731868 22.465283835426582 H 0.0 **** 0.06
753 H 15.868666433542188 22.803722991497807 20.727280827069954 H 0.0 **** 0.06
754 H 14.706595163825597 22.187267436842546 21.927875871281863 H 0.0 **** 0.06
755 H 16.243235748163272 21.329996336681916 21.65514621441224 H 0.0 **** 0.06
756 C 93.51231441347358 112.39430604343546 108.61057153471303 C 0.0 **** -0.24
757 H 93.06606186590005 111.81563545541086 107.80244291512746 H 0.0 **** 0.06
758 H 93.43467514150746 113.45759480093399 108.38108709248708 H 0.0 **** 0.06
759 H 94.56229261740077 112.12101921421511 108.71589001520793 H 0.0 **** 0.06
760 H 92.98590965358989 112.183606747535 109.54099546595369 H 0.0 **** 0.06
761 C 27.74801305492737 55.7625740408989 55.00572212083716 C 0.0 **** -0.24
762 H 27.645182517699823 55.62362016691824 56.0822877861512 H 0.0 **** 0.06
763 H 28.576962842576826 56.441709788122125 54.80596529156509 H 0.0 **** 0.06
764 H 26.826970201953202 56.184644765444574 54.60484156242208 H 0.0 **** 0.06
765 H 27.943574792309633 54.8002433704232 54.53304763624263 H 0.0 **** 0.06
766 C 70.8443468180958 87.01433118350185 15.606019707991607 C 0.0 **** -0.24
767 H 71.13346229622356 85.99204238479265 15.363252892449879 H 0.0 **** 0.06
768 H 70.1100615561791 87.3671524670216 14.880536920741207 H 0.0 **** 0.06
769 H 71.72293928167844 87.65793978211342 15.575785520452172 H 0.0 **** 0.06
770 H 70.40906693546243 87.04085586525342 16.60555600616408 H 0.0 **** 0.06
771 C 23.618938111156652 20.350217534363075 18.703072326926502 C 0.0 **** -0.24
772 H 22.697686781014042 20.659501216131936 19.198269814713946 H 0.0 **** 0.06
773 H 23.467240292943103 19.380886447100742 18.227569499881525 H 0.0 **** 0.06
774 H 24.41830357806859 20.273582822351642 19.43948174182251 H 0.0 **** 0.06
775 H 23.89081783158079 21.087988972059406 17.94792225169276 H 0.0 **** 0.06
776 C 135.4337095197824 2.9264869340586586 43.76389974400874 C 0.0 **** -0.24
777 H 135.13039848272032 1.8866047276397069 43.649203456603374 H 0.0 **** 0.06
778 H 134.65428386571526 3.5782089375810813 43.36979448794952 H 0.0 **** 0.06
779 H 136.3611201274259 3.095955483919738 43.21587883468786 H 0.0 **** 0.06
780 H 135.5913687159629 3.145108945110252 44.819979231627855 H 0.0 **** 0.06
781 C 75.88132579965853 69.93596518446444 70.7840494012053 C 0.0 **** -0.24
782 H 76.78686434941268 69.33824628007758 70.6823935070808 H 0.0 **** 0.06
783 H 75.38818834213416 70.01730367270704 69.815170970626 H 0.0 **** 0.06
784 H 76.14224314501251 70.93147748626237 71.14379696748274 H 0.0 **** 0.06
785 H 75.20853846303191 69.45704671163222 71.49565617818189 H 0.0 **** 0.06
786 C 134.47259226518085 100.38102808626454 131.60368682073155 C 0.0 **** -0.24
787 H 133.80163953216547 101.10317853901279 131.13881583199614 H 0.0 **** 0.06
788 H 133.88823934748237 99.56610827592387 132.03233856661072 H 0.0 **** 0.06
789 H 135.0452058334118 100.87128168494387 132.39014911999035 H 0.0 **** 0.06
790 H 135.15454543231854 99.98287583307672 130.85144176973463 H 0.0 **** 0.06
791 C 84.07884560455392 46.656961300022445 97.63916988365678 C 0.0 **** -0.24
792 H 83.17994743010001 46.90835630394663 98.20155364388337 H 0.0 **** 0.06
793 H 84.33131166828797 45.61021756511097 97.80614683162054 H 0.0 **** 0.06
794 H 84.90383236325702 47.28761211327226 97.97082830083028 H 0.0 **** 0.06
795 H 83.89982091019539 46.82314994269559 96.57655169169614 H 0.0 **** 0.06
796 C 101.82976035372124 45.38679519113933 138.9468618148479 C 0.0 **** -0.24
797 H 101.98717532858232 46.35075957275498 138.462144236808 H 0.0 **** 0.06
798 H 102.70155397706957 44.7526947110579 138.78306196023527 H 0.0 **** 0.06
799 H 100.94717196424479 44.90802272395595 138.52254051960364 H 0.0 **** 0.06
800 H 101.68352655489869 45.53625691826838 140.0164532084132 H 0.0 **** 0.06
801 C 78.21209721868641 130.43384854771614 117.66970576487589 C 0.0 **** -0.24
802 H 78.68118509847761 131.0645030112778 118.42518999601768 H 0.0 **** 0.06
803 H 77.89269040683146 131.04931247801832 116.82898862191169 H 0.0 **** 0.06
804 H 77.34688098264223 129.93107405842738 118.10256209478305 H 0.0 **** 0.06
805 H 78.92816856472945 129.68850412132505 117.32339027942604 H 0.0 **** 0.06
806 C 51.28271621187284 14.612066123157831 141.7165539084086 C 0.0 **** -0.24
807 H 51.33212166988369 14.93240547032525 142.75703441297574 H 0.0 **** 0.06
808 H 50.783041528967516 13.645055667719305 141.65745319450212 H 0.0 **** 0.06
809 H 52.29244290618735 14.52383037580995 141.31519326491184 H 0.0 **** 0.06
810 H 50.72410915644795 15.34647375578254 141.1367009422323 H 0.0 **** 0.06
811 C 119.55689589360814 53.977011594181164 125.35993057327342 C 0.0 **** -0.24
812 H 118.9860186987667 54.49963674183644 124.59259748502545 H 0.0 **** 0.06
813 H 120.46939553674709 53.57283661532648 124.92165681872636 H 0.0 **** 0.06
814 H 118.95814679209504 53.162056060947975 125.7674853759377 H 0.0 **** 0.06
815 H 119.81418766037625 54.67346736688185 126.15896766256891 H 0.0 **** 0.06
816 C 59.67708393714939 5.049661892984432 81.5644812900838 C 0.0 **** -0.24
817 H 60.41506937568403 5.427521343819649 80.85763436349139 H 0.0 **** 0.06
818 H 59.048086112828486 4.307158474637447 81.07140584631932 H 0.0 **** 0.06
819 H 59.05749764923483 5.8741184283956045 81.91789771254501 H 0.0 **** 0.06
820 H 60.1864755083116 4.589127969430194 82.41083678252437 H 0.0 **** 0.06
821 C 93.90398068760453 55.92285438830561 118.8541950066579 C 0.0 **** -0.24
822 H 92.88015270082785 55.88208292032198 118.48230410720572 H 0.0 **** 0.06
823 H 94.05030985742735 55.142673728270495 119.6004608844375 H 0.0 **** 0.06
824 H 94.08708797301912 56.89775039867794 119.30620650486583 H 0.0 **** 0.06
825 H 94.59741511074313 55.769872231657075 118.02740963848049 H 0.0 **** 0.06
826 C 85.28936178639202 47.67446657498567 88.38257037987529 C 0.0 **** -0.24
827 H 85.26014624545606 47.35540042455784 89.42463331457719 H 0.0 **** 0.06
828 H 86.23949043085037 47.37641095055844 87.93928796513995 H 0.0 **** 0.06
829 H 85.18873058594552 48.75876023083626 88.33216663941329 H 0.0 **** 0.06
830 H 84.47039746232446 47.20655631137569 87.83714643920354 H 0.0 **** 0.06
831 C 60.92399415845195 3.5422757757830823 106.95482772626082 C 0.0 **** -0.24
832 H 61.41090646880659 2.5729001768108333 107.06716784794008 H 0.0 **** 0.06
833 H 59.99308786248915 3.4196084135051876 106.40197689034056 H 0.0 **** 0.06
834 H 61.58395857689406 4.218246458207517 106.4102264574255 H 0.0 **** 0.06
835 H 60.71064896493667 3.9569480409665516 107.93955438679728 H 0.0 **** 0.06
836 C 104.65586191948815 108.50364677016131 120.63361368579662 C 0.0 **** -0.24
837 H 104.371385405326 107.45970441897254 120.49961964608197 H 0.0 **** 0.06
838 H 105.65335898144117 108.55421834326205 121.07072242113323 H 0.0 **** 0.06
839 H 103.9429966457418 108.99120660929248 121.29818300255899 H 0.0 **** 0.06
840 H 104.65645943391719 109.00705391006284 119.66784160867202 H 0.0 **** 0.06
841 C 71.5625308063793 134.22549649271352 133.50946769429314 C 0.0 **** -0.24
842 H 70.82054713030197 135.00632565119648 133.34641282578707 H 0.0 **** 0.06
843 H 72.54734814260183 134.5934317993579 133.21850137412213 H 0.0 **** 0.06
844 H 71.309104827304 133.35143665369876 132.90933139392723 H 0.0 **** 0.06
845 H 71.57483428633236 133.94984793680428 134.56405074087624 H 0.0 **** 0.06
846 C 83.74409783840693 113.34394291528243 30.223995106117016 C 0.0 **** -0.24
847 H 83.50106990074683 114.0307427441518 29.41282475319099 H 0.0 **** 0.06
848 H 84.64734230055669 113.6854703977629 30.73049126330578 H 0.0 **** 0.06
849 H 83.90953012639405 112.34659749128805 29.817778273622082 H 0.0 **** 0.06
850 H 82.91751780914389 113.31508739818578 30.934104055765033 H 0.0 **** 0.06
851 C 124.89759650291421 132.48144429462482 19.14571351514845 C 0.0 **** -0.24
852 H 125.78924610010773 131.91150753992503 19.406111228606896 H 0.0 **** 0.06
853 H 124.51982581542234 132.14444676024004 18.181079486674896 H 0.0 **** 0.06
854 H 125.14833700771919 133.54115290868887 19.089111477653717 H 0.0 **** 0.06
855 H 124.13446171601522 132.33002182992817 19.9085440283188 H 0.0 **** 0.06
856 C 72.60091321472376 83.65284434438361 59.38109979933304 C 0.0 **** -0.24
857 H 73.57088534681832 84.07518881146005 59.12181416854972 H 0.0 **** 0.06
858 H 72.59603701032057 82.58683686470785 59.151114529892226 H 0.0 **** 0.06
859 H 71.8214612674726 84.15232892628958 58.80463578060332 H 0.0 **** 0.06
860 H 72.4146721780456 83.79624799203548 60.44509018115198 H 0.0 **** 0.06
861 C 103.80048701959493 100.47519457122745 2.414915302834544 C 0.0 **** -0.24
862 H 103.67077583932033 101.55582928643659 2.475656774978205 H 0.0 **** 0.06
863 H 104.63661376590707 100.24591675102936 1.7547444041563267 H 0.0 **** 0.06
864 H 102.89040966982913 100.0227443424237 2.0202585777089723 H 0.0 **** 0.06
865 H 104.00157758319801 100.07759335553773 3.410299554196115 H 0.0 **** 0.06
866 C 47.686322080348944 73.86490835661073 16.950060464385956 C 0.0 **** -0.24
867 H 47.642759895370574 74.95269767994438 16.99005499985816 H 0.0 **** 0.06
868 H 47.701876525814626 73.53977164071807 15.908956652033453 H 0.0 **** 0.06
869 H 46.81140665281744 73.44762329469972 17.447371249138882 H 0.0 **** 0.06
870 H 48.58957301761103 73.51875707392531 17.452728288516425 H 0.0 **** 0.06
871 C 114.67913951782292 134.30935166745746 9.542498646028434 C 0.0 **** -0.24
872 H 115.52112140055463 133.70873096560888 9.197646213954556 H 0.0 **** 0.06
873 H 114.3597947581331 133.95694896406053 10.524101532063526 H 0.0 **** 0.06
874 H 113.85409323728898 134.21600132296265 8.837186522761101 H 0.0 **** 0.06
875 H 114.98225822271375 135.35417326460617 9.61210316697776 H 0.0 **** 0.06
876 C 69.31451297731145 84.7890491578614 92.14723165194988 C 0.0 **** -0.24
877 H 69.02077035070984 85.55707518830094 91.43163177215189 H 0.0 **** 0.06
878 H 70.1192941997014 84.1873500470007 91.72336927328746 H 0.0 **** 0.06
879 H 68.45901236816992 84.15008269561041 92.36518220840873 H 0.0 **** 0.06
880 H 69.65924723372515 85.26161460083993 93.06703439988621 H 0.0 **** 0.06
881 C 40.480023668651484 130.00526496675354 6.82265953863714 C 0.0 **** -0.24
882 H 41.17412038520392 130.84498027958367 6.803455342817529 H 0.0 **** 0.06
883 H 39.73280735189172 130.17005425913555 7.599831477050088 H 0.0 **** 0.06
884 H 41.02735547687426 129.08671656125645 7.034557201025734 H 0.0 **** 0.06
885 H 39.985929400550816 129.91981992066576 5.8547241561612395 H 0.0 **** 0.06
886 C 140.50541616854724 95.20060765898972 116.33777281350751 C 0.0 **** -0.24
887 H 140.34029779771356 96.25613165501466 116.554738086913 H 0.0 **** 0.06
888 H 140.91663932945488 95.09745276902287 115.33267055061424 H 0.0 **** 0.06
889 H 139.5581608840744 94.66395650415272 116.39954581877447 H 0.0 **** 0.06
890 H 141.20607817088282 94.78594349039831 117.06198013832852 H 0.0 **** 0.06
891 C 41.65980015367836 66.65982554927544 27.477647997156765 C 0.0 **** -0.24
892 H 42.51591303482488 66.73181459523762 26.80723753720551 H 0.0 **** 0.06
893 H 41.022304336462994 65.83286660846635 27.164153326023552 H 0.0 **** 0.06
894 H 41.09207011295786 67.59019564227144 27.443765421824963 H 0.0 **** 0.06
895 H 42.00892894938012 66.4844426653828 28.49443595677468 H 0.0 **** 0.06
896 C 4.464611587506258 59.51527107319458 9.211157205860161 C 0.0 **** -0.24
897 H 3.6168275038246094 59.64503167187607 9.884694346688889 H 0.0 **** 0.06
898 H 4.120766105597351 59.583059890979314 8.17829907256629 H 0.0 **** 0.06
899 H 4.916553984946081 58.537822683279444 9.380808688533875 H 0.0 **** 0.06
900 H 5.202472691680722 60.294311965784175 9.401790772705738 H 0.0 **** 0.06
901 C 3.148615276183847 100.10387826734899 106.0731935452194 C 0.0 **** -0.24
902 H 3.3754217761923258 100.61244668128546 105.13598551540059 H 0.0 **** 0.06
903 H 3.933518949354749 100.31569795373338 106.7999002135914 H 0.0 **** 0.06
904 H 3.092935283875505 99.0298550609985 105.89993153703188 H 0.0 **** 0.06
905 H 2.192663066356573 100.45973668877554 106.45673106629494 H 0.0 **** 0.06
906 C 115.5268339590243 136.89891476478724 86.7613756621472 C 0.0 **** -0.24
907 H 116.32679508316797 136.52097688805176 86.12527108968987 H 0.0 **** 0.06
908 H 115.57379604990099 136.40755357301103 87.73377099602175 H 0.0 **** 0.06
909 H 114.56373432379165 136.69180156878778 86.29522107620915 H 0.0 **** 0.06
910 H 115.64301037923632 137.9753270292982 86.89123948666776 H 0.0 **** 0.06
911 C 137.56663428738008 39.02592681669813 116.07215437935044 C 0.0 **** -0.24
912 H 138.48129883505896 39.54079871455443 116.36561916150627 H 0.0 **** 0.06
913 H 137.06009805228123 39.59955707707266 115.29623283363607 H 0.0 **** 0.06
914 H 136.91198900961632 38.92680891546925 116.9379569514552 H 0.0 **** 0.06
915 H 137.81446586762542 38.03560330585677 115.68943284679365 H 0.0 **** 0.06
916 C 83.95891480614091 40.755671539393546 57.046161782253165 C 0.0 **** -0.24
917 H 84.28177151773316 41.0670368759329 56.0524248485427 H 0.0 **** 0.06
918 H 84.1531770289391 41.55816424917302 57.75911663389044 H 0.0 **** 0.06
919 H 84.5090223804764 39.86387589097498 57.34420039593962 H 0.0 **** 0.06
920 H 82.89122198239089 40.535923508636245 57.02825216785976 H 0.0 **** 0.06
921 C 41.14292403769584 36.75344864536339 132.1895626718863 C 0.0 **** -0.24
922 H 42.022191985072695 37.05099578374336 132.7611809766286 H 0.0 **** 0.06
923 H 41.125966041983524 37.29353451239737 131.2422492945017 H 0.0 **** 0.06
924 H 40.24364606627252 36.98835693125646 132.75891592013295 H 0.0 **** 0.06
925 H 41.180910570263656 35.681660646884836 131.9965332004545 H 0.0 **** 0.06
926 C 61.723271156620896 52.073742332337275 30.13971245322284 C 0.0 **** -0.24
927 H 62.01817879603033 51.590532728500705 31.070477623336245 H 0.0 **** 0.06
928 H 60.82027072966646 51.599051159699684 29.75385045362563 H 0.0 **** 0.06
929 H 62.52604454468107 51.97503814329178 29.408566574672676 H 0.0 **** 0.06
930 H 61.52804235382635 53.12948055319771 30.324559324947643 H 0.0 **** 0.06
931 C 35.05980788175724 35.485308939195704 139.98503875511435 C 0.0 **** -0.24
932 H 35.916530317477026 34.8195533621739 140.08974825365968 H 0.0 **** 0.06
933 H 34.173696425846515 35.00481317645106 140.40102343061895 H 0.0 **** 0.06
934 H 34.894243635262896 35.700712947877605 138.92939179989935 H 0.0 **** 0.06
935 H 35.25401154076164 36.41497117282521 140.52017516555458 H 0.0 **** 0.06
936 C 5.7746117647495225 0.9708190995672794 134.9726458205071 C 0.0 **** -0.24
937 H 5.996533287287946 -0.00627781027645824 134.54393805525694 H 0.0 **** 0.06
938 H 5.173253533059722 1.5477304694441045 134.27043472605595 H 0.0 **** 0.06
939 H 6.706533668322265 1.4992670438299456 135.17314825201953 H 0.0 **** 0.06
940 H 5.221596233242622 0.842183164459982 135.9038233406684 H 0.0 **** 0.06
941 C 141.58316659595883 112.42217557035674 98.93745574945436 C 0.0 **** -0.24
942 H 142.59776533471657 112.17023509066776 98.62903998109611 H 0.0 **** 0.06
943 H 141.12459861619718 111.55860237929612 99.4199468688581 H 0.0 **** 0.06
944 H 140.9970854219587 112.70303971669837 98.0623254215981 H 0.0 **** 0.06
945 H 141.6131080865886 113.25651404998983 99.63713541757514 H 0.0 **** 0.06
946 C 81.13042838455112 143.98231268257348 37.07791359192629 C 0.0 **** -0.24
947 H 81.36625276653078 143.02509736018285 36.61219628185858 H 0.0 **** 0.06
948 H 82.0223988696338 144.37766324482396 37.5647518802969 H 0.0 **** 0.06
949 H 80.3428542149694 143.84187742127958 37.818590162920216 H 0.0 **** 0.06
950 H 80.79166526312733 144.68281582527058 36.314206306526984 H 0.0 **** 0.06
951 C 96.97636158231738 86.28070352287864 25.95346664484643 C 0.0 **** -0.24
952 H 97.85567938303932 86.90893294163112 25.809922520858123 H 0.0 **** 0.06
953 H 96.64027752610198 85.9017442315569 24.988252542480154 H 0.0 **** 0.06
954 H 96.1803361271545 86.86989545290282 26.4093934653705 H 0.0 **** 0.06
955 H 97.22851395725668 85.4444459613191 26.604366253372234 H 0.0 **** 0.06
956 C 22.006026272204394 115.95341807205709 35.30228185693528 C 0.0 **** -0.24
957 H 21.672918853875956 115.94323301595911 34.2644395701011 H 0.0 **** 0.06
958 H 21.525618055041463 115.13946007220524 35.84487488986332 H 0.0 **** 0.06
959 H 21.736577659554214 116.90506388452847 35.759788758324646 H 0.0 **** 0.06
960 H 23.08785946688714 115.82598059002784 35.33724628748533 H 0.0 **** 0.06
961 C 129.33178118400932 8.724820633648164 123.41448538406685 C 0.0 **** -0.24
962 H 128.69829751325807 8.891507864453018 124.2860768772774 H 0.0 **** 0.06
963 H 128.7851256105589 8.139225353191023 122.67446389518072 H 0.0 **** 0.06
964 H 130.2289362035431 8.183124308102435 123.71666897937132 H 0.0 **** 0.06
965 H 129.6149268711286 9.684333952137052 122.98240022678398 H 0.0 **** 0.06
966 C 23.32506650451876 84.66967809418573 87.7233406535077 C 0.0 **** -0.24
967 H 23.40480273494469 83.70409819733986 87.22367626179687 H 0.0 **** 0.06
968 H 23.647142420283046 85.45754824308054 87.04109824124635 H 0.0 **** 0.06
969 H 23.95958573976779 84.67314464116504 88.60861526768076 H 0.0 **** 0.06
970 H 22.290099642257893 84.8428668848007 88.01680631933277 H 0.0 **** 0.06
971 C 67.71766926135098 20.461338251044637 12.16184231117353 C 0.0 **** -0.24
972 H 66.98064470032986 19.694198312878036 11.922940578502818 H 0.0 **** 0.06
973 H 67.52182699195164 20.853961749587526 13.16027235163773 H 0.0 **** 0.06
974 H 67.64866764167773 21.269621246753886 11.433366985281765 H 0.0 **** 0.06
975 H 68.71614755687398 20.027131456031576 12.130229359755049 H 0.0 **** 0.06
976 C 119.54038620541719 112.60638030519819 18.436382219255734 C 0.0 **** -0.24
977 H 118.63579253680116 113.03227328957136 18.870595717370463 H 0.0 **** 0.06
978 H 119.31070740421559 111.6330180494679 18.00297541200689 H 0.0 **** 0.06
979 H 120.29541320060152 112.48933558857398 19.21408697594285 H 0.0 **** 0.06
980 H 119.91782124956198 113.27116599993347 17.65949827868542 H 0.0 **** 0.06
981 C 75.905465157059 26.62626382841831 50.32969900028827 C 0.0 **** -0.24
982 H 75.48993734943103 25.63498328042089 50.513528965164355 H 0.0 **** 0.06
983 H 75.10399255523063 27.36546359539257 50.35650068287042 H 0.0 **** 0.06
984 H 76.3831577051251 26.643862475191455 49.35092735004645 H 0.0 **** 0.06
985 H 76.64198118512685 26.860457960034438 51.09818981732255 H 0.0 **** 0.06
986 C 40.71917100783256 58.56447704340451 67.79104780049343 C 0.0 **** -0.24
987 H 41.44637012660854 59.28283582867013 67.41451768281655 H 0.0 **** 0.06
988 H 39.71143811807727 58.93900257210092 67.61060678888182 H 0.0 **** 0.06
989 H 40.86784527323147 58.4225255648326 68.86135272155882 H 0.0 **** 0.06
990 H 40.84991906542579 57.61160835936528 67.27670532865241 H 0.0 **** 0.06
991 C 126.4850869025158 138.91300625629762 56.488560386518316 C 0.0 **** -0.24
992 H 126.40061527181294 139.63933999290563 57.296070562830266 H 0.0 **** 0.06
993 H 126.92569330361647 139.39101623730326 55.613764784831915 H 0.0 **** 0.06
994 H 125.49418730154224 138.53424840864741 56.2358185839077 H 0.0 **** 0.06
995 H 127.11901459404086 138.0853835145703 56.80819958095168 H 0.0 **** 0.06
996 C 5.441118510835906 71.01115918351073 121.32465742394862 C 0.0 **** -0.24
997 H 6.399375612973927 71.03608555511816 120.80621853732333 H 0.0 **** 0.06
998 H 5.3814065206872215 70.10854041477063 121.93363917943401 H 0.0 **** 0.06
999 H 4.632749614280385 71.01032520592658 120.59321778609547 H 0.0 **** 0.06
1000 H 5.3510729082426 71.88842392270449 121.96492865041137 H 0.0 **** 0.06
1001 C 71.11491591982359 8.822057565227567 13.930834915275085 C 0.0 **** -0.24
1002 H 70.31577331378888 9.255007443584333 13.329121199416534 H 0.0 **** 0.06
1003 H 71.75945103008445 9.617882016065948 14.30543319940793 H 0.0 **** 0.06
1004 H 71.70176851799046 8.13878456336451 13.31678773587717 H 0.0 **** 0.06
1005 H 70.6838170346891 8.277873033952716 14.770279243467229 H 0.0 **** 0.06
1006 C 44.02643664107512 38.72649864097488 8.54580631951498 C 0.0 **** -0.24
1007 H 43.89835040667748 37.738801957910624 8.988875255652971 H 0.0 **** 0.06
1008 H 43.128628124084145 38.99340572246635 7.988297240052674 H 0.0 **** 0.06
1009 H 44.88308350396568 38.71315691332491 7.871599327742217 H 0.0 **** 0.06
1010 H 44.1951406442511 39.45873887937708 9.334811419684797 H 0.0 **** 0.06
1011 C 138.68290382262816 3.9646355877291946 112.19607636217361 C 0.0 **** -0.24
1012 H 137.72730502082325 3.5624633490443713 111.86068959143873 H 0.0 **** 0.06
1013 H 138.72133919308519 5.032823125542684 111.98487276517645 H 0.0 **** 0.06
1014 H 139.49407204366642 3.4602996473496397 111.67058108156172 H 0.0 **** 0.06
1015 H 138.78909167650673 3.802513962425941 113.26903798564993 H 0.0 **** 0.06
1016 C 24.46135816162363 37.19178543167855 104.65780206280913 C 0.0 **** -0.24
1017 H 23.430604593674218 36.83856889798864 104.66541932469511 H 0.0 **** 0.06
1018 H 24.809570743772603 37.322131504779534 105.6830263547444 H 0.0 **** 0.06
1019 H 24.51427157322638 38.14493999007155 104.13233424714434 H 0.0 **** 0.06
1020 H 25.091750473428355 36.46170268095364 104.14981621401861 H 0.0 **** 0.06
1021 C 83.75555667224168 5.156119771628852 136.88622796676748 C 0.0 **** -0.24
1022 H 82.9656900730159 5.550441165314652 137.52660234909808 H 0.0 **** 0.06
1023 H 83.75950617570052 4.067812324900302 136.94304503975013 H 0.0 **** 0.06
1024 H 84.71871829307705 5.541857270163717 137.2190088738501 H 0.0 **** 0.06
1025 H 83.57579024252564 5.466737070844914 135.85642756261882 H 0.0 **** 0.06
1026 C 133.63986918653305 22.468962452259262 68.4321384354482 C 0.0 **** -0.24
1027 H 134.4096429163047 21.69909652597037 68.49571365593144 H 0.0 **** 0.06
1028 H 132.72365022868226 22.104900621066854 68.89749606198806 H 0.0 **** 0.06
1029 H 133.44814563610734 22.703580530135987 67.385346521448 H 0.0 **** 0.06
1030 H 133.97989129010236 23.36572116284475 68.94896880238652 H 0.0 **** 0.06
1031 C 89.5340856876061 132.41129081748366 107.59027156204745 C 0.0 **** -0.24
1032 H 90.39660694428342 132.85547373937 107.09330826865404 H 0.0 **** 0.06
1033 H 89.81907279628271 132.08639926184318 108.59067832873062 H 0.0 **** 0.06
1034 H 89.18709702723001 131.5527603374564 107.01429653671589 H 0.0 **** 0.06
1035 H 88.73553261348056 133.14904520648506 107.6599873429753 H 0.0 **** 0.06
1036 C 11.989242961159505 50.19773535141967 16.43817437123556 C 0.0 **** -0.24
1037 H 11.66502661158114 49.55197039363891 15.620964266319248 H 0.0 **** 0.06
1038 H 13.061201652849434 50.37890110432795 16.353761867727513 H 0.0 **** 0.06
1039 H 11.775800171453227 49.71345228754501 17.39042640312715 H 0.0 **** 0.06
1040 H 11.454857857643958 51.14577339569763 16.384338634222445 H 0.0 **** 0.06
1041 C 48.68334652432196 98.92755609504394 95.1971043048152 C 0.0 **** -0.24
1042 H 48.05022696714042 99.7366863429121 95.56028571331466 H 0.0 **** 0.06
1043 H 49.40563081707688 98.65679482599643 95.96792054648199 H 0.0 **** 0.06
1044 H 49.21170236505361 99.25375340268488 94.3017198720366 H 0.0 **** 0.06
1045 H 48.065040827870746 98.06191071149726 94.95895930020038 H 0.0 **** 0.06
1046 C 137.50395951947593 28.939236008851253 135.20697850790432 C 0.0 **** -0.24
1047 H 137.6128534358552 29.899221485222427 135.71136812421986 H 0.0 **** 0.06
1048 H 138.43488580191797 28.377456982971466 135.29123723032816 H 0.0 **** 0.06
1049 H 137.27319332987793 29.105474580559417 134.1549606474094 H 0.0 **** 0.06
1050 H 136.69490669128584 28.37476665446576 135.6713477547382 H 0.0 **** 0.06
1051 C 23.405075749896127 64.25986571762348 64.57630237316276 C 0.0 **** -0.24
1052 H 22.895079587789667 64.69905273622908 65.43364336129292 H 0.0 **** 0.06
1053 H 23.0472075175731 63.241447813334844 64.42312201072467 H 0.0 **** 0.06
1054 H 24.478564727321498 64.24483853360775 64.76091936513231 H 0.0 **** 0.06
1055 H 23.197922458155347 64.8553654290474 63.68717611510381 H 0.0 **** 0.06
1056 C 48.81266369732333 68.83209789936441 93.57505288527987 C 0.0 **** -0.24
1057 H 48.990439710148905 67.80881371924207 93.2421638125293 H 0.0 **** 0.06
1058 H 49.68532364243191 69.19336783695135 94.11923259120502 H 0.0 **** 0.06
1059 H 47.94099599040857 68.8548924301983 94.22835577979903 H 0.0 **** 0.06
1060 H 48.63462165124491 69.46990426748894 92.7088860474683 H 0.0 **** 0.06
1061 C 78.03178944796261 33.407945266818416 112.70889400912971 C 0.0 **** -0.24
1062 H 78.61395343176898 32.53706352906431 113.0112249861891 H 0.0 **** 0.06
1063 H 78.20759772060471 34.223596501257106 113.41099617897824 H 0.0 **** 0.06
1064 H 76.97264213326953 33.152446912496515 112.70599426404267 H 0.0 **** 0.06
1065 H 78.33477192458112 33.71797902716585 111.70886072086192 H 0.0 **** 0.06
1066 C 19.034422588609274 13.276085625924537 112.72897697947437 C 0.0 **** -0.24
1067 H 19.564334855806493 13.329393197416977 113.67946587660535 H 0.0 **** 0.06
1068 H 18.693157075691303 14.272765384503032 112.44746810277948 H 0.0 **** 0.06
1069 H 18.176008735626624 12.612384663313065 112.8279544765563 H 0.0 **** 0.06
1070 H 19.704403735610597 12.890776078732245 111.96001941552927 H 0.0 **** 0.06
1071 C 54.01104020252882 69.2626518818701 78.49168106023211 C 0.0 **** -0.24
1072 H 55.02855759235311 68.87568404775612 78.55648233217701 H 0.0 **** 0.06
1073 H 53.44460907557283 68.93957598409011 79.36521792108066 H 0.0 **** 0.06
1074 H 53.53541957401342 68.88184514063464 77.58736298562341 H 0.0 **** 0.06
1075 H 54.03820632464655 70.35156122123563 78.4571075238699 H 0.0 **** 0.06
1076 C 75.59974947002745 37.413297402695626 17.593714191348738 C 0.0 **** -0.24
1077 H 75.43396058909926 36.49476274826866 17.031766700173193 H 0.0 **** 0.06
1078 H 75.64842839401439 38.25613392993523 16.905155702412628 H 0.0 **** 0.06
1079 H 76.53750894411588 37.33773549439051 18.144769989009205 H 0.0 **** 0.06
1080 H 74.7779915533018 37.56280246047887 18.295085793345834 H 0.0 **** 0.06
1081 C 63.61424105743848 15.482664293103483 96.09785993699836 C 0.0 **** -0.24
1082 H 63.13788197237923 15.107110641616316 95.19271777372745 H 0.0 **** 0.06
1083 H 64.68648083236687 15.289664708099252 96.05046827832865 H 0.0 **** 0.06
1084 H 63.191967098305355 14.979385354413267 96.96712737091423 H 0.0 **** 0.06
1085 H 63.44168424736185 16.55622261145794 96.18016803761043 H 0.0 **** 0.06
1086 C 91.24517218064099 48.19485379437788 57.91384990687615 C 0.0 **** -0.24
1087 H 90.82342634992777 48.51399315409952 58.86661398708824 H 0.0 **** 0.06
1088 H 92.2660141306576 47.84522295181182 58.06821922785977 H 0.0 **** 0.06
1089 H 91.24962115946708 49.03534877373295 57.2193527346723 H 0.0 **** 0.06
1090 H 90.6413180517708 47.3861352774361 57.501717081173894 H 0.0 **** 0.06
1091 C 103.5465152614334 101.50484591063238 35.93875402717657 C 0.0 **** -0.24
1092 H 103.79252947645591 100.99063604259317 35.00975020112253 H 0.0 **** 0.06
1093 H 102.54808911027952 101.93602428295185 35.8622991336228 H 0.0 **** 0.06
1094 H 104.2731605167234 102.29797125374341 36.117515878397626 H 0.0 **** 0.06
1095 H 103.57470564141951 100.79485851240167 36.76511234996303 H 0.0 **** 0.06
1096 C 15.49361570189373 122.98504962652655 15.19357821473833 C 0.0 **** -0.24
1097 H 15.437813782907199 122.74678684935193 14.13111648943935 H 0.0 **** 0.06
1098 H 16.52106175918746 123.24116723052131 15.45476460029274 H 0.0 **** 0.06
1099 H 15.17426870170192 122.12034701422695 15.775859770552827 H 0.0 **** 0.06
1100 H 14.841719160109335 123.83057648732662 15.411525666207922 H 0.0 **** 0.06
1101 C 55.61471177589311 49.107372642624426 127.10129952275122 C 0.0 **** -0.24
1102 H 56.50602186508452 49.24721791637754 127.7125363825964 H 0.0 **** 0.06
1103 H 55.868525873675225 49.250107993964946 126.05102055505037 H 0.0 **** 0.06
1104 H 54.85685862666976 49.83341104534472 127.39477476277412 H 0.0 **** 0.06
1105 H 55.228647206933815 48.098680874263806 127.2487477093446 H 0.0 **** 0.06
1106 C 90.01663259053343 75.47843552234568 142.44996904712292 C 0.0 **** -0.24
1107 H 89.85091639932035 74.91284620910241 143.3669907355148 H 0.0 **** 0.06
1108 H 90.98519655977866 75.2110768592431 142.02761721069888 H 0.0 **** 0.06
1109 H 89.99933211740772 76.5455208548855 142.67325253226505 H 0.0 **** 0.06
1110 H 89.22969549815228 75.24526499699667 141.73164984126834 H 0.0 **** 0.06
1111 C 120.7299859716424 59.525847432648604 61.264984410433385 C 0.0 **** -0.24
1112 H 121.57647219894687 58.923412974584025 61.596005147156916 H 0.0 **** 0.06
1113 H 119.81167773619342 58.94471576571456 61.36029943334523 H 0.0 **** 0.06
1114 H 120.87321781759312 59.81079910911096 60.22298822563255 H 0.0 **** 0.06
1115 H 120.6580498956859 60.42229269287611 61.88051099277965 H 0.0 **** 0.06
1116 C 47.749000689588684 4.28480106239266 3.741179147969433 C 0.0 **** -0.24
1117 H 47.176137914979336 4.592900743659186 4.615476407299468 H 0.0 **** 0.06
1118 H 47.0682105041474 3.9236401071784144 2.969385491145374 H 0.0 **** 0.06
1119 H 48.43835002700553 3.48760768932749 4.020467780803926 H 0.0 **** 0.06
1120 H 48.313330503967904 5.135895332450275 3.3582491804554593 H 0.0 **** 0.06
1121 C 86.36241545414754 69.61668227713056 32.3365452921758 C 0.0 **** -0.24
1122 H 85.63203320964101 70.33624128007926 31.96607730345886 H 0.0 **** 0.06
1123 H 86.49461293534364 69.7542719071381 33.40996172541497 H 0.0 **** 0.06
1124 H 87.31481744209032 69.77179282013992 31.830196554936947 H 0.0 **** 0.06
1125 H 86.00655804844752 68.6053276786534 32.14152413097213 H 0.0 **** 0.06
1126 C 18.51682181688568 67.79320462277826 76.97806175853786 C 0.0 **** -0.24
1127 H 19.245118980769405 68.60061974005606 76.90106193390324 H 0.0 **** 0.06
1128 H 17.5177005779765 68.2158338224279 77.09431280227288 H 0.0 **** 0.06
1129 H 18.75181441279478 67.1722654891342 77.84266281000092 H 0.0 **** 0.06
1130 H 18.551551391200945 67.18624102465411 76.07376263127904 H 0.0 **** 0.06
1131 C 31.346439333802067 101.97977184089964 16.1139551703711 C 0.0 **** -0.24
1132 H 31.687015153763383 102.37095327574102 15.156039188944447 H 0.0 **** 0.06
1133 H 30.29060387083169 101.71573130178146 16.044212639383346 H 0.0 **** 0.06
1134 H 31.48123750091304 102.73922552726967 16.88527904950118 H 0.0 **** 0.06
1135 H 31.926914680501767 101.09400811135498 16.371809547939563 H 0.0 **** 0.06
1136 C 25.030329041699815 78.50045281575765 139.73459981994077 C 0.0 **** -0.24
1137 H 25.825906132608083 78.20780648885255 139.04940414341758 H 0.0 **** 0.06
1138 H 24.60438053363586 79.45029502412424 139.4118359259129 H 0.0 **** 0.06
1139 H 25.438174371399526 78.60734306304087 140.74041273305392 H 0.0 **** 0.06
1140 H 24.25416972443108 77.73566365071028 139.7380798017753 H 0.0 **** 0.06
1141 C 141.9521196500607 128.6723384502144 83.0490629033471 C 0.0 **** -0.24
1142 H 142.34279011525837 127.79236643709436 83.56012429163458 H 0.0 **** 0.06
1143 H 142.21058033712262 129.56620152351366 83.6171243372233 H 0.0 **** 0.06
1144 H 140.8677560429964 128.59365940140015 82.9676620693529 H 0.0 **** 0.06
1145 H 142.38765005511647 128.73594235133663 82.05205453256391 H 0.0 **** 0.06
1146 C 131.3758296347638 21.88223756368336 129.22203846948784 C 0.0 **** -0.24
1147 H 131.8414505923982 22.849516985456603 129.4146795953545 H 0.0 **** 0.06
1148 H 131.11242303943624 21.411327189749727 130.16909616558735 H 0.0 **** 0.06
1149 H 132.07360089973042 21.245254142498766 128.67965555772068 H 0.0 **** 0.06
1150 H 130.47609172693635 22.026405508004245 128.6241645841448 H 0.0 **** 0.06
1151 C 114.97699379072289 93.36181685358497 31.472618741266196 C 0.0 **** -0.24
1152 H 115.81331672294986 93.92851632797317 31.882487715344062 H 0.0 **** 0.06
1153 H 114.1254474460376 93.43088754050609 32.15008681637674 H 0.0 **** 0.06
1154 H 115.2670588518247 92.31780183132287 31.356624058859417 H 0.0 **** 0.06
1155 H 114.70240840247847 93.77214269374974 30.500499152162455 H 0.0 **** 0.06
1156 C 105.65332359114687 15.684211705874432 16.911784335644086 C 0.0 **** -0.24
1157 H 105.22016462124274 15.865800908433947 15.927757100224397 H 0.0 **** 0.06
1158 H 106.13865552130657 14.707919317623201 16.921376858358826 H 0.0 **** 0.06
1159 H 104.86533266082607 15.706350643617917 17.665069202473887 H 0.0 **** 0.06
1160 H 106.38933547681329 16.457577526146878 17.133499798200887 H 0.0 **** 0.06
1161 C 33.1976473619857 142.28673550058144 13.150639462400846 C 0.0 **** -0.24
1162 H 32.44690864542491 143.07040897155196 13.046864778090622 H 0.0 **** 0.06
1163 H 32.71697297033927 141.36304841500208 13.47259782129234 H 0.0 **** 0.06
1164 H 33.93842200326392 142.58829938996666 13.89065366038733 H 0.0 **** 0.06
1165 H 33.689000343569006 142.12568264527548 12.190151981837914 H 0.0 **** 0.06
1166 C 130.17354116769172 12.20951848751369 58.76535462175485 C 0.0 **** -0.24
1167 H 131.18383650329807 12.204615420273583 58.35562762385385 H 0.0 **** 0.06
1168 H 130.1103366737199 11.495109605994138 59.58528570144907 H 0.0 **** 0.06
1169 H 129.46517191840772 11.932445355484091 57.985278126940926 H 0.0 **** 0.06
1170 H 129.93715298981897 13.207473774751605 59.132970888404515 H 0.0 **** 0.06
1171 C 21.837382928369408 101.32760970966825 124.12319461459646 C 0.0 **** -0.24
1172 H 22.191839896509833 101.78510134351116 123.19879501587391 H 0.0 **** 0.06
1173 H 20.977748031608627 101.8832246028508 124.49592610767311 H 0.0 **** 0.06
1174 H 22.634356872683355 101.34920317717702 124.86676920376067 H 0.0 **** 0.06
1175 H 21.54851264946629 100.29465300745498 123.92973841895505 H 0.0 **** 0.06
1176 C 90.44915754696177 7.420030070136534 65.81880460926322 C 0.0 **** -0.24
1177 H 90.1552391546763 7.537436249079747 66.86216873260945 H 0.0 **** 0.06
1178 H 91.33180300165691 8.028104664046424 65.61918945327434 H 0.0 **** 0.06
1179 H 89.63277668396483 7.742165927241302 65.17367857524113 H 0.0 **** 0.06
1180 H 90.676758034129 6.3726966384624575 65.62113927714631 H 0.0 **** 0.06
1181 C 101.61138678092124 64.31410144993606 125.52129018232326 C 0.0 **** -0.24
1182 H 100.60070081315752 64.71495557440724 125.4351809107856 H 0.0 **** 0.06
1183 H 102.07540529550579 64.6927926732084 126.43122952708087 H 0.0 **** 0.06
1184 H 102.19896277424476 64.62299552605626 124.65686448332843 H 0.0 **** 0.06
1185 H 101.56776920079551 63.22569741100634 125.56059730376121 H 0.0 **** 0.06
1186 C 38.513997822316355 76.3052569315212 25.82410357171733 C 0.0 **** -0.24
1187 H 38.70803904606555 77.03613128548142 25.03931725565252 H 0.0 **** 0.06
1188 H 38.872340414275925 75.32645723446191 25.5044355251581 H 0.0 **** 0.06
1189 H 37.44235385155872 76.25610786851908 26.016442995940736 H 0.0 **** 0.06
1190 H 39.03415956818628 76.60428027351838 26.73437755049821 H 0.0 **** 0.06
1191 C 9.842494125234737 40.02406196012706 68.65269885814254 C 0.0 **** -0.24
1192 H 10.489792146671448 39.379409765446326 68.05771000383366 H 0.0 **** 0.06
1193 H 10.445693326128008 40.57936009036433 69.37110516116124 H 0.0 **** 0.06
1194 H 9.112508150712557 39.41441555971139 69.18415872646696 H 0.0 **** 0.06
1195 H 9.324116366104676 40.72217358139207 67.99619104039262 H 0.0 **** 0.06
1196 C 33.73488248814908 144.34447240593232 69.80720172671224 C 0.0 **** -0.24
1197 H 33.55782848238812 144.2408127127705 70.87775739878126 H 0.0 **** 0.06
1198 H 33.59446963541873 145.38468413734677 69.51402317378543 H 0.0 **** 0.06
1199 H 33.03277082876322 143.71427513025992 69.26088356989587 H 0.0 **** 0.06
1200 H 34.75430904709191 144.03624318363654 69.57682356096673 H 0.0 **** 0.06
1201 C 83.06875818524595 81.24259833899464 40.72876739368917 C 0.0 **** -0.24
1202 H 83.51307965209303 80.39000395184561 41.24365592564942 H 0.0 **** 0.06
1203 H 83.77696150101137 81.63231467280343 39.997416487507564 H 0.0 **** 0.06
1204 H 82.83032279775387 82.02045868299328 41.45363890995014 H 0.0 **** 0.06
1205 H 82.15803357570822 80.92637305228357 40.22072396555552 H 0.0 **** 0.06
1206 C 1.6519310219101477 16.883237499656985 133.4100785450873 C 0.0 **** -0.24
1207 H 1.5627906472645137 16.525097264764916 134.43595547991066 H 0.0 **** 0.06
1208 H 1.6417969526238245 17.973124495897743 133.40446361058338 H 0.0 **** 0.06
1209 H 0.8149547283599361 16.509013943942684 132.82127189238227 H 0.0 **** 0.06
1210 H 2.5871836860527324 16.52537751110797 132.9805956693451 H 0.0 **** 0.06
1211 C 59.373344187456254 17.61513925418746 113.79483009652277 C 0.0 **** -0.24
1212 H 60.3449307799858 17.630352709120935 113.30141148954313 H 0.0 **** 0.06
1213 H 58.585025871366696 17.566288481878296 113.04237889243713 H 0.0 **** 0.06
1214 H 59.25322099576478 18.52137362198915 114.3885940160457 H 0.0 **** 0.06
1215 H 59.30893893633319 16.74309627460019 114.44548507078922 H 0.0 **** 0.06
1216 C 26.80339245258625 114.86136311316142 140.52968617925163 C 0.0 **** -0.24
1217 H 26.082603202714125 114.04939070176783 140.62684874638822 H 0.0 **** 0.06
1218 H 27.58555046839257 114.7432664711792 141.2797447948125 H 0.0 **** 0.06
1219 H 26.298135945430637 115.81548261302095 140.67689250808328 H 0.0 **** 0.06
1220 H 27.2471395072048 114.83478427436586 139.53364999350563 H 0.0 **** 0.06
1221 C 85.3397514214331 25.217099764334385 83.12921508360468 C 0.0 **** -0.24
1222 H 84.539274834649 25.515044366066007 83.80673051867822 H 0.0 **** 0.06
1223 H 85.64387493496918 26.073706857829436 82.52874025729282 H 0.0 **** 0.06
1224 H 84.98371594469455 24.42127157060373 82.4754283467672 H 0.0 **** 0.06
1225 H 86.191028136667 24.85854063657876 83.70908167402735 H 0.0 **** 0.06
1226 C 93.6118430592347 134.84933440833174 83.23744469834523 C 0.0 **** -0.24
1227 H 94.52603719049466 134.61349335076193 82.69212826700122 H 0.0 **** 0.06
1228 H 93.71021347854318 134.51945925743178 84.27170121646726 H 0.0 **** 0.06
1229 H 92.76966402818755 134.3392667510225 82.77013072617505 H 0.0 **** 0.06
1230 H 93.44281703201926 135.926814752374 83.2135220256624 H 0.0 **** 0.06
1231 C 118.73802871034853 53.27077139163208 89.77989175830926 C 0.0 **** -0.24
1232 H 118.56347187187005 52.90160404916443 88.76933979327573 H 0.0 **** 0.06
1233 H 118.45564275296555 52.502810616901485 90.50026411397215 H 0.0 **** 0.06
1234 H 118.13781452308275 54.16496984762918 89.94767716484087 H 0.0 **** 0.06
1235 H 119.7940185707502 53.51315545598786 89.90045829404629 H 0.0 **** 0.06
1236 C 37.60171062405777 97.5973406151941 121.362488430928 C 0.0 **** -0.24
1237 H 37.722751416574084 96.5477189136019 121.63208135987877 H 0.0 **** 0.06
1238 H 37.89838069937113 97.74190879715238 120.32353471978799 H 0.0 **** 0.06
1239 H 38.227315503118746 98.21339700908126 122.00817716319376 H 0.0 **** 0.06
1240 H 36.55766793101199 97.88512604395697 121.48610193966236 H 0.0 **** 0.06
1241 C 96.11984785671314 45.758515599707465 51.204655518794866 C 0.0 **** -0.24
1242 H 97.06395244998916 45.615948337388645 51.73073916527598 H 0.0 **** 0.06
1243 H 95.97042465302826 44.93924129889383 50.500205168324584 H 0.0 **** 0.06
1244 H 96.14483151617213 46.703818665426894 50.662748868507734 H 0.0 **** 0.06
1245 H 95.30154413811778 45.7734302152499 51.92421472639626 H 0.0 **** 0.06
1246 C 84.6034766366703 118.2223996254737 44.11636201066021 C 0.0 **** -0.24
1247 H 84.24339074761988 117.20683607124748 43.950188186139215 H 0.0 **** 0.06
1248 H 83.87036373590273 118.7764536233686 44.702530531770236 H 0.0 **** 0.06
1249 H 84.75158276724528 118.71693584492785 43.15618316631934 H 0.0 **** 0.06
1250 H 85.54970643292832 118.18754764421801 44.65593349901886 H 0.0 **** 0.06
1251 C 49.990532444150475 139.1167949413137 50.013664238078206 C 0.0 **** -0.24
1252 H 50.25538276020761 140.16070803924785 50.182686918453555 H 0.0 **** 0.06
1253 H 49.018981283272254 138.91072061376755 50.46391156273978 H 0.0 **** 0.06
1254 H 50.74498856732403 138.47260512586425 50.46539019743068 H 0.0 **** 0.06
1255 H 49.94341147919589 138.92337411765035 48.9414250158722 H 0.0 **** 0.06
1256 C 16.554038013899238 107.76428425933533 0.1970938594328686 C 0.0 **** -0.24
1257 H 16.693674562208436 107.26458478206108 -0.7614904938284894 H 0.0 **** 0.06
1258 H 16.012143834361545 107.10427362774077 0.8749371956242271 H 0.0 **** 0.06
1259 H 15.984766246602994 108.68122213279177 0.04893033280779946 H 0.0 **** 0.06
1260 H 17.527705581012405 108.00602882734121 0.6253881598304929 H 0.0 **** 0.06
1261 C 62.980023659197215 43.95888236275226 54.71015892474128 C 0.0 **** -0.24
1262 H 63.16544787085914 44.486238659761554 53.7740210468521 H 0.0 **** 0.06
1263 H 62.08170350196174 44.35989702325401 55.18106241429372 H 0.0 **** 0.06
1264 H 63.831756479231686 44.09371729124142 55.377649515328415 H 0.0 **** 0.06
1265 H 62.84153447274299 42.89659737566916 54.50807907984546 H 0.0 **** 0.06
1266 C 82.21327533293106 102.39775813029988 113.7979031003116 C 0.0 **** -0.24
1267 H 82.22786427288639 101.31277432380335 113.90632470795089 H 0.0 **** 0.06
1268 H 81.18125784640159 102.74753031331613 113.79172289578605 H 0.0 **** 0.06
1269 H 82.69816443610597 102.67545954231872 112.86129302150584 H 0.0 **** 0.06
1270 H 82.7475379065769 102.85283563509142 114.6319353929627 H 0.0 **** 0.06
1271 C 62.1460852019116 112.34939277076224 100.61407197092541 C 0.0 **** -0.24
1272 H 62.16853771184245 111.59921655155064 99.82389768551448 H 0.0 **** 0.06
1273 H 62.561009812750726 111.92451193304821 101.5281877982987 H 0.0 **** 0.06
1274 H 61.116173755303905 112.65963970793662 100.79212300705444 H 0.0 **** 0.06
1275 H 62.73880117913933 113.21280301779892 100.31216568604916 H 0.0 **** 0.06
1276 C 85.58278863400147 109.69052349530223 103.70981981443488 C 0.0 **** -0.24
1277 H 85.26863499259485 110.66756865128032 104.07427017210807 H 0.0 **** 0.06
1278 H 85.67782616197195 109.7206572806398 102.62411094647877 H 0.0 **** 0.06
1279 H 84.84061501484092 108.94177624015775 103.9886204782903 H 0.0 **** 0.06
1280 H 86.54452097893562 109.4300106238638 104.15158992500365 H 0.0 **** 0.06
1281 C 64.17564572817886 15.24990144984946 20.18861159700336 C 0.0 **** -0.24
1282 H 64.53825476597265 14.288595023272023 19.82465756912032 H 0.0 **** 0.06
1283 H 65.00564481529975 15.954890691632158 20.239686041496583 H 0.0 **** 0.06
1284 H 63.745013226519376 15.122715732776953 21.18219720993372 H 0.0 **** 0.06
1285 H 63.41519166556992 15.632094847462042 19.508890590415717 H 0.0 **** 0.06
1286 C 93.20833267612382 106.30907914695037 136.82406464889527 C 0.0 **** -0.24
1287 H 92.64921970761598 105.67286312803283 137.5102823764369 H 0.0 **** 0.06
1288 H 92.95132478791311 107.3534086305528 137.00586905641688 H 0.0 **** 0.06
1289 H 92.95662920048885 106.0454278503938 135.79737715971748 H 0.0 **** 0.06
1290 H 94.27708424701375 106.1644420692936 136.98499051123702 H 0.0 **** 0.06
1291 C 119.26050805406621 40.48432576227157 113.97741992805774 C 0.0 **** -0.24
1292 H 120.26150754802401 40.75367986123331 113.63949640576814 H 0.0 **** 0.06
1293 H 118.51984729823644 41.005441888919364 113.36943917419492 H 0.0 **** 0.06
1294 H 119.14003768705854 40.77000097562171 115.02233784545334 H 0.0 **** 0.06
1295 H 119.1212225616658 39.40807420306069 113.87602947109136 H 0.0 **** 0.06
1296 C 93.2177512770807 68.2669443631259 65.74980926562738 C 0.0 **** -0.24
1297 H 93.70601277470234 69.23691337197053 65.6531306776823 H 0.0 **** 0.06
1298 H 92.27472111804227 68.38722198524717 66.28243510169973 H 0.0 **** 0.06
1299 H 93.86512841242501 67.58737896880574 66.30405074310394 H 0.0 **** 0.06
1300 H 93.026146101192 67.85729155685087 64.7579070808242 H 0.0 **** 0.06
1301 C 28.185344603999837 105.06501491448527 143.25263063973244 C 0.0 **** -0.24
1302 H 27.182097817237405 105.38867217815012 143.52952547423408 H 0.0 **** 0.06
1303 H 28.59973315310181 105.75755223834476 142.5196339794207 H 0.0 **** 0.06
1304 H 28.138918431440928 104.06465813704378 142.82388856924146 H 0.0 **** 0.06
1305 H 28.819081339312277 105.05146963618097 144.1397874494112 H 0.0 **** 0.06
1306 C 131.2885174879843 39.8427301066458 1.8127298451588878 C 0.0 **** -0.24
1307 H 130.56720552210479 39.25787681781202 2.382884688227996 H 0.0 **** 0.06
1308 H 131.96418492304505 40.35499789696465 2.497616055240293 H 0.0 **** 0.06
1309 H 130.75956234939392 40.57865715641216 1.205383297378571 H 0.0 **** 0.06
1310 H 131.86113514789236 39.18041037823335 1.1640215456699714 H 0.0 **** 0.06
1311 C 109.0649807496926 25.21850048848917 6.829979966336936 C 0.0 **** -0.24
1312 H 109.50363432796344 25.62252823064391 7.7422833762474 H 0.0 **** 0.06
1313 H 107.97784760549901 25.23809424470211 6.909090808485956 H 0.0 **** 0.06
1314 H 109.40023672708607 24.190101572761506 6.690767711040991 H 0.0 **** 0.06
1315 H 109.37804369921618 25.82106455846582 5.978052754725979 H 0.0 **** 0.06
1316 C 83.7669354311081 131.5895753794191 48.11699043115769 C 0.0 **** -0.24
1317 H 83.52621680135209 130.74544739326797 48.76438169360384 H 0.0 **** 0.06
1318 H 84.25761931503499 131.22484275899882 47.214055006363736 H 0.0 **** 0.06
1319 H 84.43435322235771 132.27203791961108 48.643646191514705 H 0.0 **** 0.06
1320 H 82.84941867326737 132.11277642218602 47.847206118044085 H 0.0 **** 0.06
1321 C 110.88199196984726 73.73688019501786 116.89128760555596 C 0.0 **** -0.24
1322 H 110.40588692192875 73.06111099125084 116.18124405986268 H 0.0 **** 0.06
1323 H 111.72053583726455 73.2293953613476 117.36967791256606 H 0.0 **** 0.06
1324 H 110.15744836882118 74.03600412588396 117.65015151771652 H 0.0 **** 0.06
1325 H 111.24262503035175 74.62016085088997 116.36584122594101 H 0.0 **** 0.06
1326 C 96.14483652746235 16.51583758254523 108.57613595122332 C 0.0 **** -0.24
1327 H 95.35068956369638 16.93487724299961 109.19376143875043 H 0.0 **** 0.06
1328 H 96.74618454869744 17.32524011274038 108.16069275153076 H 0.0 **** 0.06
1329 H 95.70536554903772 15.935284701551375 107.76469739529757 H 0.0 **** 0.06
1330 H 96.7758359802808 15.869983868027852 109.1858846878283 H 0.0 **** 0.06
1331 C 37.56448173867196 55.32461277272992 128.69909645082495 C 0.0 **** -0.24
1332 H 37.612397754938925 55.97994910439034 127.8300865582253 H 0.0 **** 0.06
1333 H 36.58651888732389 54.84435715966616 128.73730799405158 H 0.0 **** 0.06
1334 H 37.71800545405807 55.90951359407261 129.6048195338689 H 0.0 **** 0.06
1335 H 38.34069171168575 54.562962527240984 128.62271652666644 H 0.0 **** 0.06
1336 C 117.72922582151895 130.43554141367554 104.54079463493403 C 0.0 **** -0.24
1337 H 116.75195515925324 130.91478242855257 104.58089353370853 H 0.0 **** 0.06
1338 H 118.49225903021753 131.1845671287722 104.32866565585549 H 0.0 **** 0.06
1339 H 117.73244394731515 129.68099231185053 103.75420313225442 H 0.0 **** 0.06
1340 H 117.94156334148849 129.96207238851315 105.498968274566 H 0.0 **** 0.06
1341 C 48.06831400219224 123.25552120252057 101.71493514647811 C 0.0 **** -0.24
1342 H 47.10660002644258 123.39492606125857 101.22006904393348 H 0.0 **** 0.06
1343 H 48.82061337278574 122.98141046086442 100.97582634334275 H 0.0 **** 0.06
1344 H 47.981793348724835 122.46238739665729 102.45893173601283 H 0.0 **** 0.06
1345 H 48.36224106457533 124.18365571027796 102.20585178455191 H 0.0 **** 0.06
1346 C 10.04623865351627 64.2171218658415 27.524436814070697 C 0.0 **** -0.24
1347 H 9.395121219666805 65.0401023396858 27.22981311964702 H 0.0 **** 0.06
1348 H 9.642535658297248 63.735147173614195 28.41542628054168 H 0.0 **** 0.06
1349 H 11.042710438080945 64.60227913229116 27.739840485244343 H 0.0 **** 0.06
1350 H 10.105123858535649 63.49115802985182 26.713487408070506 H 0.0 **** 0.06
1351 C 135.57755068590419 99.96068360648674 137.0347662969118 C 0.0 **** -0.24
1352 H 135.41360174552125 100.28296201593437 136.0066966254965 H 0.0 **** 0.06
1353 H 134.63811929903832 99.59844027123552 137.45551972712906 H 0.0 **** 0.06
1354 H 135.9401272763751 100.80136690625326 137.62577617481054 H 0.0 **** 0.06
1355 H 136.3162519477953 99.15879369832156 137.0515280381377 H 0.0 **** 0.06
1356 C 7.858474326780623 119.92871119537487 23.439313780411624 C 0.0 **** -0.24
1357 H 7.248160111830231 119.25831994115096 22.834092311841857 H 0.0 **** 0.06
1358 H 7.5396205209388825 119.86872850291532 24.479886806002355 H 0.0 **** 0.06
1359 H 7.738836301527925 120.95105246963023 23.081253812252044 H 0.0 **** 0.06
1360 H 8.90532049929405 119.63607519545796 23.36117839569448 H 0.0 **** 0.06
1361 C 71.1751398887904 126.7161433406195 102.78262844527218 C 0.0 **** -0.24
1362 H 71.35312619343952 127.60340534114285 103.38948911666326 H 0.0 **** 0.06
1363 H 70.43462642279894 126.9434169129076 102.01579637503899 H 0.0 **** 0.06
1364 H 70.80660053443847 125.90949400189301 103.41753359634431 H 0.0 **** 0.06
1365 H 72.1070094694818 126.40797898279938 102.30822173903658 H 0.0 **** 0.06
1366 C 41.9352578480178 72.59925457562605 67.40448472922273 C 0.0 **** -0.24
1367 H 41.69981495405057 72.12647353696048 66.45120533058304 H 0.0 **** 0.06
1368 H 42.40910056644145 73.56446781382914 67.22297323253649 H 0.0 **** 0.06
1369 H 42.61480784370055 71.96153449318314 67.9684117863507 H 0.0 **** 0.06
1370 H 41.0178898455717 72.74569047901184 67.97326438910771 H 0.0 **** 0.06
1371 C 145.2576437597737 20.110337094634133 37.229992619106326 C 0.0 **** -0.24
1372 H 146.00818073676328 20.78372793524879 37.643530893110636 H 0.0 **** 0.06
1373 H 144.28340319169888 20.599659361071218 37.24485741195713 H 0.0 **** 0.06
1374 H 145.21760206342083 19.200794517838347 37.827703062186515 H 0.0 **** 0.06
1375 H 145.52265238614214 19.858636650717756 36.20276419244287 H 0.0 **** 0.06
1376 C 126.18806103649794 22.833090364756224 126.27666384585336 C 0.0 **** -0.24
1377 H 126.29524925891256 21.756233257071074 126.40507852228515 H 0.0 **** 0.06
1378 H 125.1394047780217 23.109308855970006 126.38967411659496 H 0.0 **** 0.06
1379 H 126.5340869587473 23.117205622520352 125.28294030741205 H 0.0 **** 0.06
1380 H 126.78313145679218 23.349093549092565 127.03057221772687 H 0.0 **** 0.06
1381 C 11.302312993384248 116.87943548481711 113.86665210885884 C 0.0 **** -0.24
1382 H 12.16637441092368 116.280510862918 113.58101596278503 H 0.0 **** 0.06
1383 H 10.403197709487046 116.4590494034103 113.4147381788528 H 0.0 **** 0.06
1384 H 11.439137999666372 117.90289015966214 113.51717342289221 H 0.0 **** 0.06
1385 H 11.19992009766193 116.87643922915315 114.95186527557378 H 0.0 **** 0.06
1386 C 97.66268210614462 43.16093559546374 41.31742442069941 C 0.0 **** -0.24
1387 H 97.95096765372213 43.656921248841726 42.24385387816197 H 0.0 **** 0.06
1388 H 97.36390514066292 43.90839552762519 40.58230138145916 H 0.0 **** 0.06
1389 H 96.82766088255732 42.48726044984657 41.51095289508402 H 0.0 **** 0.06
1390 H 98.50764031553547 42.59033522256095 40.93252739938714 H 0.0 **** 0.06
1391 C 43.538899757965666 111.43818751996417 9.920569886545138 C 0.0 **** -0.24
1392 H 43.40574503656781 112.36408455399061 9.360878537413726 H 0.0 **** 0.06
1393 H 42.72973503201359 111.33087446245963 10.64346219005489 H 0.0 **** 0.06
1394 H 44.49465750610186 111.46402964337972 10.443970504972924 H 0.0 **** 0.06
1395 H 43.5252062116691 110.59322420409006 9.23181274718354 H 0.0 **** 0.06
1396 C 108.90640459052725 38.80295267174685 107.7850001713608 C 0.0 **** -0.24
1397 H 109.27268715366552 37.93019088965687 107.24487256537286 H 0.0 **** 0.06
1398 H 107.95430626480561 39.12028738424385 107.35968340217529 H 0.0 **** 0.06
1399 H 109.63116642386353 39.612949674927336 107.70008222671565 H 0.0 **** 0.06
1400 H 108.76819373193757 38.54848894009436 108.83603198942855 H 0.0 **** 0.06
1401 C 141.52192473895627 120.55068040371283 77.5583727120466 C 0.0 **** -0.24
1402 H 141.97062689577461 121.28088859627216 76.88367104551958 H 0.0 **** 0.06
1403 H 141.3343292911473 121.01815751092444 78.52592688449084 H 0.0 **** 0.06
1404 H 142.2013519049815 119.70866830536902 77.68558981546715 H 0.0 **** 0.06
1405 H 140.58074812759685 120.19773956073594 77.13582889195315 H 0.0 **** 0.06
1406 C 53.812110653515106 6.097240595617389 75.74040598545841 C 0.0 **** -0.24
1407 H 53.80225621340607 5.773063889860751 76.78084158271393 H 0.0 **** 0.06
1408 H 52.811602043630174 5.996023087300507 75.319500475842 H 0.0 **** 0.06
1409 H 54.508929861990225 5.478915885895084 75.17374428818835 H 0.0 **** 0.06
1410 H 54.12637281299416 7.139750295347579 75.68738966324001 H 0.0 **** 0.06
1411 C 107.93568939067721 94.50846740186964 137.70600978057703 C 0.0 **** -0.24
1412 H 107.71004980273035 94.03965379029654 136.74783469177268 H 0.0 **** 0.06
1413 H 108.93380300905487 94.21213220347846 138.0289239501122 H 0.0 **** 0.06
1414 H 107.20271287596815 94.18927786571905 138.44771889895034 H 0.0 **** 0.06
1415 H 107.89425933211088 95.5924230747153 137.59850372622185 H 0.0 **** 0.06
1416 C 37.783642266086474 106.11177356346586 138.33385323045528 C 0.0 **** -0.24
1417 H 38.73092168340747 105.67855597973737 138.6530523450236 H 0.0 **** 0.06
1418 H 37.872136919416164 106.46120620675028 137.30526613503986 H 0.0 **** 0.06
1419 H 37.53131895442067 106.95133524959898 138.9825589206463 H 0.0 **** 0.06
1420 H 36.99997897662837 105.35710587559267 138.39538693694595 H 0.0 **** 0.06
1421 C 1.7049073278695346 39.340373723527435 92.13561472847852 C 0.0 **** -0.24
1422 H 1.7194176784798003 39.71473707093708 91.11189531305514 H 0.0 **** 0.06
1423 H 1.82419806671507 38.256577504928686 92.12752721494297 H 0.0 **** 0.06
1424 H 0.7542200290468486 39.59791707730783 92.60159320532539 H 0.0 **** 0.06
1425 H 2.5202722674799816 39.79331205265625 92.69907968203077 H 0.0 **** 0.06
1426 C 142.4252239881847 116.28311101616613 134.66092241621075 C 0.0 **** -0.24
1427 H 142.05572944890602 116.96167193130962 135.42965888512708 H 0.0 **** 0.06
1428 H 143.49016718460896 116.45932628517001 134.50095936056624 H 0.0 **** 0.06
1429 H 141.88436162237744 116.45758754388775 133.73138936620364 H 0.0 **** 0.06
1430 H 142.2720437682847 115.25211967296836 134.981700563034 H 0.0 **** 0.06
1431 C 115.82434760412582 43.7903474307962 130.66064047880423 C 0.0 **** -0.24
1432 H 115.92706538679982 42.88015149794256 131.25191904249695 H 0.0 **** 0.06
1433 H 116.75898662942802 43.987609280930144 130.13306615324387 H 0.0 **** 0.06
1434 H 115.59524680704567 44.62744558927835 131.32002306126526 H 0.0 **** 0.06
1435 H 115.01835341125445 43.66421525078766 129.93765919511284 H 0.0 **** 0.06
1436 C 10.764347305009352 130.31433840787932 94.24836249237768 C 0.0 **** -0.24
1437 H 11.14334704588319 129.40593303932164 94.71669547485104 H 0.0 **** 0.06
1438 H 11.378832126693709 131.16196344039926 94.55183095333516 H 0.0 **** 0.06
1439 H 9.733709045604513 130.48090283342063 94.5607179655068 H 0.0 **** 0.06
1440 H 10.803059859816614 130.2069963233907 93.1645835068897 H 0.0 **** 0.06
1441 C 93.46668176194652 136.991420437706 13.281035467381798 C 0.0 **** -0.24
1442 H 92.52964013346691 137.53727539217323 13.398748374150415 H 0.0 **** 0.06
1443 H 93.68987308225711 136.87877683070764 12.219642519174698 H 0.0 **** 0.06
1444 H 93.37262228194476 136.00689764201988 13.739198727534074 H 0.0 **** 0.06
1445 H 94.2717391171199 137.54350086819124 13.76603005578761 H 0.0 **** 0.06
1446 C 112.78738806133772 80.19565285596858 6.2963245740042595 C 0.0 **** -0.24
1447 H 111.76555335398443 80.52570513341712 6.479314066346106 H 0.0 **** 0.06
1448 H 113.34771214480635 80.99928586213139 5.815736470594128 H 0.0 **** 0.06
1449 H 112.77590329250414 79.32131266199258 5.644981918898075 H 0.0 **** 0.06
1450 H 113.26164983124114 79.9375340580566 7.243053862129354 H 0.0 **** 0.06
1451 C 74.97040266987848 61.66322111063124 0.5036068822339814 C 0.0 **** -0.24
1452 H 74.8590220769979 62.29008753742295 -0.3808057583999016 H 0.0 **** 0.06
1453 H 74.32190545214857 62.03535876902083 1.296966090653683 H 0.0 **** 0.06
1454 H 76.00714427904244 61.68992298986126 0.8398921259126837 H 0.0 **** 0.06
1455 H 74.69413567022563 60.63799844432509 0.25901561561249764 H 0.0 **** 0.06
1456 C 119.32618473250328 80.28397556285336 51.709524014880856 C 0.0 **** -0.24
1457 H 118.84964473667766 79.97379134617684 52.63942093208139 H 0.0 **** 0.06
1458 H 119.9660662539557 79.481293717978 51.34294743104114 H 0.0 **** 0.06
1459 H 119.92833578172615 81.17463600667713 51.8898209804517 H 0.0 **** 0.06
1460 H 118.56025657477424 80.5070790434479 50.9659711636797 H 0.0 **** 0.06
1461 C 39.038348554848966 0.7106932130768371 48.19082333029782 C 0.0 **** -0.24
1462 H 39.96542791888635 0.5736346596955855 47.63380652554447 H 0.0 **** 0.06
1463 H 39.22852753613188 1.3354090556137521 49.0635431974473 H 0.0 **** 0.06
1464 H 38.661118534773465 -0.2602599300293207 48.512410672040104 H 0.0 **** 0.06
1465 H 38.29919485068433 1.1936222846544808 47.551507900957645 H 0.0 **** 0.06
1466 C 133.33546298124602 68.35252056479096 134.62182416348548 C 0.0 **** -0.24
1467 H 133.8199220532813 68.76693195235929 135.5059895945276 H 0.0 **** 0.06
1468 H 132.64679858887308 69.08853660190684 134.20611913080052 H 0.0 **** 0.06
1469 H 132.78410375338703 67.45320016685389 134.89869015648424 H 0.0 **** 0.06
1470 H 134.09129048763188 68.10059896416645 133.87830539408017 H 0.0 **** 0.06
1471 C 50.752338042406194 131.91989956244217 115.11913126766183 C 0.0 **** -0.24
1472 H 51.38827058191961 131.11147961339609 115.48017405798305 H 0.0 **** 0.06
1473 H 50.2745538130288 132.41220259763176 115.96563986740898 H 0.0 **** 0.06
1474 H 49.98850983549974 131.51316213532456 114.45599172361585 H 0.0 **** 0.06
1475 H 51.35992275430701 132.6425383293599 114.57319447270976 H 0.0 **** 0.06
1476 C 20.200288802517008 77.96535738457987 23.67596142602659 C 0.0 **** -0.24
1477 H 20.80463287327501 77.69635856411202 24.54198495499125 H 0.0 **** 0.06
1478 H 19.360704515154225 77.27513872475521 23.590000107621705 H 0.0 **** 0.06
1479 H 20.811647274081082 77.90899063050875 22.774401901370396 H 0.0 **** 0.06
1480 H 19.824436488555364 78.98197790610374 23.796533823006854 H 0.0 **** 0.06
1481 C 81.2980481268972 14.089026655662963 123.8055393200934 C 0.0 **** -0.24
1482 H 81.76265246984367 15.061639086723261 123.96865208643126 H 0.0 **** 0.06
1483 H 80.5270207181503 14.17905309714061 123.04110238942829 H 0.0 **** 0.06
1484 H 80.84937050484919 13.739486657648769 124.73586620716273 H 0.0 **** 0.06
1485 H 82.05443033942477 13.376213535130177 123.47706207476952 H 0.0 **** 0.06
1486 C 14.139210024721592 61.314730694937 115.89513847771568 C 0.0 **** -0.24
1487 H 14.569620195037707 61.57426133147601 116.86347722315648 H 0.0 **** 0.06
1488 H 13.896743545673644 60.25248948236384 115.87890644072635 H 0.0 **** 0.06
1489 H 14.859129662266035 61.535862767261136 115.10733507199492 H 0.0 **** 0.06
1490 H 13.232353860901057 61.89753100480391 115.73391630019759 H 0.0 **** 0.06
1491 C 88.52285954451389 31.908474069245912 125.52938731166778 C 0.0 **** -0.24
1492 H 87.70879491833313 31.29616411292453 125.14280206460569 H 0.0 **** 0.06
1493 H 88.17525880534134 32.93372322525207 125.65870017283126 H 0.0 **** 0.06
1494 H 89.35575587629722 31.89161079555757 124.82652656937076 H 0.0 **** 0.06
1495 H 88.85040745129953 31.512055429299828 126.49014612659757 H 0.0 **** 0.06
1496 C 48.79015849500527 7.346815869245006 117.74032679749781 C 0.0 **** -0.24
1497 H 48.71013310486771 7.012832778795712 116.70553205606639 H 0.0 **** 0.06
1498 H 49.829046726317145 7.275492281560162 118.06529628401067 H 0.0 **** 0.06
1499 H 48.16672093944807 6.717217606308566 118.37427986229558 H 0.0 **** 0.06
1500 H 48.4565028722824 8.381909494383422 117.81451584958053 H 0.0 **** 0.06
1501 C 18.865982084901958 108.42749429814614 136.47894706556045 C 0.0 **** -0.24
1502 H 19.42680095047828 108.07413804080863 137.3443270160815 H 0.0 **** 0.06
1503 H 18.157690689734522 107.65937674854018 136.16671050026613 H 0.0 **** 0.06
1504 H 19.555422315181374 108.6407933728766 135.66185185322175 H 0.0 **** 0.06
1505 H 18.32356317039668 109.33591538858423 136.74421639071048 H 0.0 **** 0.06
1506 C 94.81735011984465 22.49926570777155 4.025418889185431 C 0.0 **** -0.24
1507 H 94.56146022169199 22.691305363546036 5.0671333423653095 H 0.0 **** 0.06
1508 H 95.39297782102658 21.57660514080385 3.9567814953672666 H 0.0 **** 0.06
1509 H 95.41112975909573 23.327734955297565 3.6382014102447613 H 0.0 **** 0.06
1510 H 93.90291397044913 22.402883662516494 3.4396374033111385 H 0.0 **** 0.06
1511 C 116.44070476224607 110.83637583695169 138.81915361723486 C 0.0 **** -0.24
1512 H 116.46342368274827 110.08323781170238 139.60660764733979 H 0.0 **** 0.06
1513 H 115.48403111356555 111.35888066180787 138.84425675844244 H 0.0 **** 0.06
1514 H 116.566969726607 110.35294972099196 137.85032945740886 H 0.0 **** 0.06
1515 H 117.24924216630257 111.55089986172219 138.97685785421598 H 0.0 **** 0.06
1516 C 0.853423781619199 46.47134246669563 23.564935822649865 C 0.0 **** -0.24
1517 H 1.6045380799099291 46.22745533539964 22.81448314655193 H 0.0 **** 0.06
1518 H 1.1866463251001846 46.11659756527348 24.540787109658318 H 0.0 **** 0.06
1519 H -0.08914993216737344 45.98897821333588 23.305387302452026 H 0.0 **** 0.06
1520 H 0.7113430839019088 47.551421725532606 23.599327090978292 H 0.0 **** 0.06
1521 C 69.42537433323872 2.924907554475965 18.691817644746465 C 0.0 **** -0.24
1522 H 68.60555326885083 3.578451988666643 18.987658703806773 H 0.0 **** 0.06
1523 H 69.71221480208342 3.145172214165399 17.663045090656112 H 0.0 **** 0.06
1524 H 69.10653651148417 1.8855270918826648 18.76538096649685 H 0.0 **** 0.06
1525 H 70.27845045402395 3.0909854321113244 19.350783676243537 H 0.0 **** 0.06
1526 C 48.68910090243918 20.355133828589622 79.11549637943952 C 0.0 **** -0.24
1527 H 48.74074393874025 19.867165385571887 78.1421918578101 H 0.0 **** 0.06
1528 H 48.23988037886295 21.342954562754066 79.00337098223619 H 0.0 **** 0.06
1529 H 49.69452838442254 20.45731964190034 79.52497479598603 H 0.0 **** 0.06
1530 H 48.08011434529783 19.75392963094484 79.7913342479822 H 0.0 **** 0.06
1531 C 7.187387595924065 70.2597931149149 61.0037702069624 C 0.0 **** -0.24
1532 H 7.982595757373275 70.06365259084575 60.28582125925779 H 0.0 **** 0.06
1533 H 7.045723970178585 71.33579137032444 61.103369669833555 H 0.0 **** 0.06
1534 H 7.457735873346678 69.83804839486467 61.9711631156589 H 0.0 **** 0.06
1535 H 6.261537681410175 69.80232184353864 60.653856069339724 H 0.0 **** 0.06
1536 C 45.00907442493069 14.464483275947828 10.291704622628679 C 0.0 **** -0.24
1537 H 45.79313356360524 13.72432815843306 10.131821642968305 H 0.0 **** 0.06
1538 H 45.10290591276885 14.881577699793752 11.294113604924561 H 0.0 **** 0.06
1539 H 44.0338143111957 13.988938220855744 10.184893888327615 H 0.0 **** 0.06
1540 H 45.107785498870044 15.261672356442688 9.55489691916381 H 0.0 **** 0.06
1541 C 118.62462307481233 47.33107742648198 0.954790446267566 C 0.0 **** -0.24
1542 H 118.46907912094763 47.79258259074558 1.930082182161641 H 0.0 **** 0.06
1543 H 117.9868376177974 47.818820111607906 0.2165562367641769 H 0.0 **** 0.06
1544 H 118.37191187839069 46.272454658821914 1.0089822935885877 H 0.0 **** 0.06
1545 H 119.66881976914827 47.44122558439065 0.6635886137574971 H 0.0 **** 0.06
1546 C 126.38680167576047 143.80878139933142 31.036095880605885 C 0.0 **** -0.24
1547 H 126.58528404891943 144.23848592299885 32.01741163973347 H 0.0 **** 0.06
1548 H 125.52980921046458 144.30993885933032 30.585800397138655 H 0.0 **** 0.06
1549 H 126.17076485278912 142.745483067874 31.141895983986814 H 0.0 **** 0.06
1550 H 127.26086544795383 143.93949348973632 30.397936200328758 H 0.0 **** 0.06
1551 C 117.38337866583998 117.86378367749778 128.71201213507848 C 0.0 **** -0.24
1552 H 117.48643655995244 118.9388785490661 128.8587976226517 H 0.0 **** 0.06
1553 H 118.25072031322594 117.35481016248629 129.1326334979986 H 0.0 **** 0.06
1554 H 117.31757762397746 117.648815925011 127.64475956480007 H 0.0 **** 0.06
1555 H 116.47815222529675 117.51454899784694 129.20922652444082 H 0.0 **** 0.06
1556 C 33.44146787571367 109.5673615782626 13.05709087237554 C 0.0 **** -0.24
1557 H 34.28230726919327 108.97550515737787 12.696896561395903 H 0.0 **** 0.06
1558 H 33.30641234235651 109.39274708925889 14.125241961099505 H 0.0 **** 0.06
1559 H 32.53746527219778 109.27472542566865 12.524255801034798 H 0.0 **** 0.06
1560 H 33.63991515530324 110.62475842759353 12.883391544470697 H 0.0 **** 0.06
1561 C 114.16534189485611 138.31254914929187 95.64982832864166 C 0.0 **** -0.24
1562 H 115.06936862626992 137.70857457346935 95.73560323206712 H 0.0 **** 0.06
1563 H 114.20434157420755 139.12844547043736 96.37147998257103 H 0.0 **** 0.06
1564 H 113.29325900639168 137.6901734360691 95.8500601892591 H 0.0 **** 0.06
1565 H 114.0961433776701 138.7213605383868 94.64166280702051 H 0.0 **** 0.06
1566 C 102.96247822928564 96.4340798933153 69.66825376566162 C 0.0 **** -0.24
1567 H 102.81812811547061 95.35881329048598 69.5636752391539 H 0.0 **** 0.06
1568 H 102.1050846065404 96.86657463935055 70.1847171254718 H 0.0 **** 0.06
1569 H 103.056599688549 96.88531223972237 68.6805152290806 H 0.0 **** 0.06
1570 H 103.86788114597023 96.62461361728091 70.24267109099473 H 0.0 **** 0.06
1571 C 127.57088275071965 142.05342407144283 99.57288905932242 C 0.0 **** -0.24
1572 H 127.93651369342211 142.1645179523239 98.55304888929166 H 0.0 **** 0.06
1573 H 126.48059190845751 142.07486177379812 99.57239076130017 H 0.0 **** 0.06
1574 H 127.95000631884795 142.86994932326584 100.18652794460766 H 0.0 **** 0.06
1575 H 127.91481144107996 141.10221900737818 99.98093065381386 H 0.0 **** 0.06
1576 C 16.46018401365248 21.169262461155952 46.93776321834736 C 0.0 **** -0.24
1577 H 15.899009402847895 22.1010867992307 46.99788226617841 H 0.0 **** 0.06
1578 H 16.65006709725271 20.92589177674438 45.89215428478491 H 0.0 **** 0.06
1579 H 15.883639893700739 20.36685714734044 47.39897415117491 H 0.0 **** 0.06
1580 H 17.40860728335545 21.282762654496253 47.46324673126372 H 0.0 **** 0.06
1581 C 70.88834118396124 22.986711629937076 122.58081420776125 C 0.0 **** -0.24
1582 H 70.5607757957403 23.59766631123 123.42149616646944 H 0.0 **** 0.06
1583 H 70.41243964799543 22.007786382870933 122.63504490342291 H 0.0 **** 0.06
1584 H 71.97185407587884 22.867134070756975 122.61953101132372 H 0.0 **** 0.06
1585 H 70.6106020598265 23.47498914714444 121.64756779246073 H 0.0 **** 0.06
1586 C 106.68431261912102 63.04802625113258 80.27198247677536 C 0.0 **** -0.24
1587 H 107.31384365014176 63.870813332954825 79.93079768086866 H 0.0 **** 0.06
1588 H 105.81821882919562 63.44887666372044 80.7987142837464 H 0.0 **** 0.06
1589 H 107.25592590512511 62.40740178449225 80.94263096024797 H 0.0 **** 0.06
1590 H 106.3496565768294 62.467591268911846 79.41201882881722 H 0.0 **** 0.06
1591 C 140.73520690917928 97.47512551120417 78.70997276083614 C 0.0 **** -0.24
1592 H 141.72360414381404 97.86506216811256 78.95257984036363 H 0.0 **** 0.06
1593 H 140.81607650517125 96.42124847667304 78.4440024735332 H 0.0 **** 0.06
1594 H 140.32144744553506 98.0318048113071 77.86952637318012 H 0.0 **** 0.06
1595 H 140.07978023988352 97.58320044542592 79.57493613809976 H 0.0 **** 0.06
1596 C 145.47068807171368 54.568333270072785 128.96280799681188 C 0.0 **** -0.24
1597 H 145.50246840492053 53.632420267153734 128.40553541420894 H 0.0 **** 0.06
1598 H 146.45342435472227 55.04018380090223 128.9384069591737 H 0.0 **** 0.06
1599 H 145.19077220353148 54.36481284430343 129.9972153210257 H 0.0 **** 0.06
1600 H 144.7352872531458 55.23520862302826 128.51203885023438 H 0.0 **** 0.06
1601 C 66.5712233916388 112.4644434490176 126.80305498539039 C 0.0 **** -0.24
1602 H 66.46352215276256 111.99218666815749 127.77967716732148 H 0.0 **** 0.06
1603 H 66.75867700861045 113.52998842742916 126.93383692683605 H 0.0 **** 0.06
1604 H 65.65611327028114 112.32318709458859 126.22865880680479 H 0.0 **** 0.06
1605 H 67.40749584309067 112.01019984802501 126.27056828732098 H 0.0 **** 0.06
1606 C 105.5614682084928 95.03152948501602 67.18748845211385 C 0.0 **** -0.24
1607 H 104.81975824961846 95.31848671029118 66.44269334962986 H 0.0 **** 0.06
1608 H 105.94014282660346 94.03482968049607 66.95678514947778 H 0.0 **** 0.06
1609 H 105.10099540411261 95.0257348844566 68.17526985577173 H 0.0 **** 0.06
1610 H 106.38476486865964 95.74542361451674 67.17408481334289 H 0.0 **** 0.06
1611 C 79.5040687695224 34.87676475386599 1.92262959028875 C 0.0 **** -0.24
1612 H 78.94258435759464 35.21480240668536 2.7929551895608142 H 0.0 **** 0.06
1613 H 80.38350785738716 34.322785153707564 2.2513169801155755 H 0.0 **** 0.06
1614 H 79.81602506036432 35.740784318052555 1.334783165746785 H 0.0 **** 0.06
1615 H 78.87358468401125 34.230294121818105 1.311761799591011 H 0.0 **** 0.06
1616 C 88.70818049457375 112.25785263326543 21.4525992115488 C 0.0 **** -0.24
1617 H 88.10220610934107 111.40514113435529 21.14517267983311 H 0.0 **** 0.06
1618 H 89.71628146943482 111.91886748471876 21.691057567006197 H 0.0 **** 0.06
1619 H 88.26272628549782 112.72170317251249 22.33266461892461 H 0.0 **** 0.06
1620 H 88.75038869475895 112.98423288273295 20.640728460301403 H 0.0 **** 0.06
1621 C 128.41368457508378 105.18871988331719 71.75426301334696 C 0.0 **** -0.24
1622 H 128.54113748773244 105.28111047945305 70.67591584854046 H 0.0 **** 0.06
1623 H 129.1622572126316 104.50378294801098 72.15207865193057 H 0.0 **** 0.06
1624 H 127.41677942008853 104.80316865461532 71.97000197178616 H 0.0 **** 0.06
1625 H 128.53289574549078 106.1677890559344 72.21853357957164 H 0.0 **** 0.06
1626 C 23.509772746212796 50.972946107793845 129.58502660231758 C 0.0 **** -0.24
1627 H 22.4658262784302 50.73877995250537 129.3789080960291 H 0.0 **** 0.06
1628 H 24.107848871655406 50.77705785521506 128.6955247185544 H 0.0 **** 0.06
1629 H 23.865316799108612 50.350632489951764 130.40651068752493 H 0.0 **** 0.06
1630 H 23.598972312467993 52.02407534707278 129.85960566452385 H 0.0 **** 0.06
1631 C 86.72406354767904 23.560312665281856 132.3766170599085 C 0.0 **** -0.24
1632 H 86.1871652046593 24.415058360728437 132.78961454080104 H 0.0 **** 0.06
1633 H 86.01782855848589 22.760546067159396 132.15557546217596 H 0.0 **** 0.06
1634 H 87.45900925654163 23.209102810579907 133.10043976561153 H 0.0 **** 0.06
1635 H 87.23254822466734 23.860689882112638 131.4595271880481 H 0.0 **** 0.06
1636 C 143.43766251303188 107.44248646982547 89.33669024756989 C 0.0 **** -0.24
1637 H 144.13305144513944 106.76802970778456 89.83450158311015 H 0.0 **** 0.06
1638 H 142.75730583649042 106.86542207227055 88.71022446166498 H 0.0 **** 0.06
1639 H 143.99414647717973 108.14645429153549 88.71860225702753 H 0.0 **** 0.06
1640 H 142.86483800243283 107.99037598531962 90.0861114480243 H 0.0 **** 0.06
1641 C 26.764893919192716 143.65762836701086 90.21698688450716 C 0.0 **** -0.24
1642 H 26.1672932374249 142.7571270084121 90.36338594230321 H 0.0 **** 0.06
1643 H 27.757446737472534 143.50793804794841 90.64302520472889 H 0.0 **** 0.06
1644 H 26.279953100958124 144.4994411713744 90.71092664614336 H 0.0 **** 0.06
1645 H 26.854639865907586 143.8643423358301 89.15019827937412 H 0.0 **** 0.06
1646 C 90.20741054424462 88.21474074301865 27.277883767434076 C 0.0 **** -0.24
1647 H 90.20561182356113 89.20386231180687 27.733727049985596 H 0.0 **** 0.06
1648 H 89.66949024206073 88.25052453915578 26.330098875582017 H 0.0 **** 0.06
1649 H 89.71931896744647 87.50486652244314 27.946263999274436 H 0.0 **** 0.06
1650 H 91.23613142328946 87.89881238121382 27.100839769263523 H 0.0 **** 0.06
1651 C 50.03145940034992 89.05270366609722 63.15790069490271 C 0.0 **** -0.24
1652 H 49.91407888477764 89.80524366218799 63.93845326845096 H 0.0 **** 0.06
1653 H 49.05017940483279 88.76650445553916 62.7787589020634 H 0.0 **** 0.06
1654 H 50.530931870068486 88.17564491398156 63.57152028739682 H 0.0 **** 0.06
1655 H 50.630814238519434 89.46277642219535 62.3457954328762 H 0.0 **** 0.06
1656 C 21.476360690114745 39.82985045033638 109.87244894172335 C 0.0 **** -0.24
1657 H 20.634434865454267 39.85218740430625 110.5656155433561 H 0.0 **** 0.06
1658 H 21.99880455194115 38.87765656610833 109.96702766422862 H 0.0 **** 0.06
1659 H 22.16100270825318 40.644654232434505 110.1062949724726 H 0.0 **** 0.06
1660 H 21.11038913466618 39.9438391283621 108.85264884038008 H 0.0 **** 0.06
1661 C 108.76020730058057 108.38427708010929 102.33203310225844 C 0.0 **** -0.24
1662 H 107.78709988644387 108.51366852938301 101.85799647663185 H 0.0 **** 0.06
1663 H 108.62453940326559 108.21755855681059 103.40020959175718 H 0.0 **** 0.06
1664 H 109.36105317500473 109.28022465933563 102.17679117706393 H 0.0 **** 0.06
1665 H 109.26722508660457 107.52633607074117 101.89035891233178 H 0.0 **** 0.06
1666 C 135.17892989497415 96.63981944434205 116.426385760208 C 0.0 **** -0.24
1667 H 134.34867355792431 96.76075416509599 117.12306801029217 H 0.0 **** 0.06
1668 H 136.02521915716142 96.18913653593987 116.94524346329746 H 0.0 **** 0.06
1669 H 135.46908809259423 97.6152360322502 116.03462991727315 H 0.0 **** 0.06
1670 H 134.8709612652865 95.99495317385048 115.60369585075426 H 0.0 **** 0.06
1671 C 53.21706039399575 130.09279398297653 55.445732512975866 C 0.0 **** -0.24
1672 H 53.86467059335226 130.9620226902275 55.32630291252917 H 0.0 **** 0.06
1673 H 53.00321019529592 129.94152245475584 56.50400607571257 H 0.0 **** 0.06
1674 H 53.71583639807939 129.2103969898745 55.0457976334411 H 0.0 **** 0.06
1675 H 52.284157079549075 130.25891456021435 54.90662280667978 H 0.0 **** 0.06
1676 C 41.063465403473316 75.80085604636237 112.44634130180435 C 0.0 **** -0.24
1677 H 41.2503695717194 76.87183168567894 112.5324747007204 H 0.0 **** 0.06
1678 H 40.60714141841737 75.58843630287829 111.47905013099103 H 0.0 **** 0.06
1679 H 40.390335620633095 75.48471536473878 113.24297122989026 H 0.0 **** 0.06
1680 H 42.00518526251321 75.2599601403069 112.53081114301989 H 0.0 **** 0.06
1681 C 44.79500513070275 111.29444338210074 19.44411980287498 C 0.0 **** -0.24
1682 H 44.83734380150233 112.36941135866114 19.26703166311438 H 0.0 **** 0.06
1683 H 45.01717545776545 110.76517057481651 18.516854689536473 H 0.0 **** 0.06
1684 H 43.7977389764242 111.02159782289614 19.788830409039264 H 0.0 **** 0.06
1685 H 45.52965329422875 111.02294934020027 20.20215407283291 H 0.0 **** 0.06
1686 C 35.981751948133905 128.4156781521164 27.61108044048214 C 0.0 **** -0.24
1687 H 36.09858818466884 128.23269593552016 28.67962839669488 H 0.0 **** 0.06
1688 H 36.78646060167969 127.9199500346608 27.067786294559227 H 0.0 **** 0.06
1689 H 36.02098775565736 129.4886822879066 27.42070550290751 H 0.0 **** 0.06
1690 H 35.02197991828103 128.02197898122225 27.278353140591236 H 0.0 **** 0.06
1691 C 50.19062662501027 48.54573974375215 129.46798371417162 C 0.0 **** -0.24
1692 H 49.43883682800181 47.775192281185824 129.29872479225457 H 0.0 **** 0.06
1693 H 49.72763685709235 49.40255288769032 129.95685034257676 H 0.0 **** 0.06
1694 H 50.614563012921266 48.856377558854376 128.51277902067577 H 0.0 **** 0.06
1695 H 50.98227002914879 48.147676290741856 130.1036999687351 H 0.0 **** 0.06
1696 C 41.4924047593415 26.200927965859456 57.76903299677571 C 0.0 **** -0.24
1697 H 42.288689221424775 25.52050139441951 58.07255676790626 H 0.0 **** 0.06
1698 H 41.17451074428005 26.792936879256423 58.62692093344623 H 0.0 **** 0.06
1699 H 40.6477584190085 25.625820363200376 57.38954689004865 H 0.0 **** 0.06
1700 H 41.86097135781806 26.864883076999696 56.98641737227294 H 0.0 **** 0.06
1701 C 130.6281738258351 90.15263646256246 123.99018654764487 C 0.0 **** -0.24
1702 H 130.1842724018029 90.40270890413953 123.02738483946356 H 0.0 **** 0.06
1703 H 131.7066388396131 90.04002503913253 123.8752699871981 H 0.0 **** 0.06
1704 H 130.2009474822018 89.2183221204816 124.35568798349513 H 0.0 **** 0.06
1705 H 130.41990671506753 90.95003536641633 124.70375904458476 H 0.0 **** 0.06
1706 C 111.86229937536372 35.29873549720739 94.90684517804179 C 0.0 **** -0.24
1707 H 112.9178876229732 35.571738892158606 94.92883485193956 H 0.0 **** 0.06
1708 H 111.47615679011109 35.4230766720365 93.89544859619747 H 0.0 **** 0.06
1709 H 111.3068959457003 35.940810285636104 95.5895492403543 H 0.0 **** 0.06
1710 H 111.75047761202383 34.25909303513754 95.213689299744 H 0.0 **** 0.06
1711 C 10.103425706217251 4.241729899623898 44.99431034907279 C 0.0 **** -0.24
1712 H 9.536204005171278 3.645186228317627 45.70936567682152 H 0.0 **** 0.06
1713 H 11.146445335178605 4.289343071470341 45.30861111675314 H 0.0 **** 0.06
1714 H 9.689833221983633 5.249912455042722 44.95324777126413 H 0.0 **** 0.06
1715 H 10.041663137566644 3.7822354241249734 44.008195205360394 H 0.0 **** 0.06
1716 C 37.00070503460114 78.89293457279747 64.33772463510309 C 0.0 **** -0.24
1717 H 37.117956207067465 77.98812301973406 63.74119289222199 H 0.0 **** 0.06
1718 H 36.19373895352581 79.49918955380952 63.92454477404391 H 0.0 **** 0.06
1719 H 37.929710575044936 79.46253820586126 64.31871692872295 H 0.0 **** 0.06
1720 H 36.761414402766434 78.62188751178518 65.36644394542355 H 0.0 **** 0.06
1721 C 143.1639892855963 136.67060379955373 83.56369745697128 C 0.0 **** -0.24
1722 H 142.9832916704755 137.3779551637867 84.37405008654719 H 0.0 **** 0.06
1723 H 142.27497405086484 136.05676073320765 83.41321299678145 H 0.0 **** 0.06
1724 H 144.00824018198605 136.03125626906703 83.8211756954513 H 0.0 **** 0.06
1725 H 143.38737286961205 137.21740414926782 82.64828935441471 H 0.0 **** 0.06
1726 C 6.141619835927077 24.18447077425435 49.257199261739856 C 0.0 **** -0.24
1727 H 6.275821554461007 24.749849078276924 50.17984502529444 H 0.0 **** 0.06
1728 H 5.384980910218182 23.414295224668905 49.411335932847635 H 0.0 **** 0.06
1729 H 7.085430637787553 23.716965721609284 48.97765308391172 H 0.0 **** 0.06
1730 H 5.818999122757834 24.85716837618699 48.46332291536888 H 0.0 **** 0.06
1731 C 48.80085725966228 95.87370282968412 22.84453738537806 C 0.0 **** -0.24
1732 H 48.48152426116677 96.32743483497819 23.782532897894498 H 0.0 **** 0.06
1733 H 48.09100596861951 95.0966578029908 22.557795085685456 H 0.0 **** 0.06
1734 H 49.78972785562064 95.43321002123345 22.973001153267518 H 0.0 **** 0.06
1735 H 48.83956924699791 96.6358692090494 22.067417954163744 H 0.0 **** 0.06
1736 C 33.9584688117351 91.73111863624885 127.79997286814935 C 0.0 **** -0.24
1737 H 34.183233442937684 90.89128853709892 128.4568253066865 H 0.0 **** 0.06
1738 H 33.27942166433014 92.41725573551264 128.3068661318832 H 0.0 **** 0.06
1739 H 33.48767408584771 91.36203855887517 126.88848993153803 H 0.0 **** 0.06
1740 H 34.88175150264147 92.25263019669121 127.54727607509474 H 0.0 **** 0.06
1741 C 6.937951759335078 144.45088859215466 93.84659290783479 C 0.0 **** -0.24
1742 H 7.915999480677698 144.39390435754214 94.32302579070443 H 0.0 **** 0.06
1743 H 7.050427356039137 144.82799353629773 92.82947636893847 H 0.0 **** 0.06
1744 H 6.295816134020839 145.12300755930843 94.41523585384682 H 0.0 **** 0.06
1745 H 6.489579364710011 143.45765267212275 93.81854812608127 H 0.0 **** 0.06
1746 C 66.14369801124067 8.214749261425368 101.13674236615014 C 0.0 **** -0.24
1747 H 66.04118027478208 8.106070692926778 100.05778318816908 H 0.0 **** 0.06
1748 H 66.23434068056193 9.271904292895044 101.38837719383261 H 0.0 **** 0.06
1749 H 67.0344148972479 7.683023833908294 101.47211293147164 H 0.0 **** 0.06
1750 H 65.26468257454675 7.798358050484353 101.63005279055436 H 0.0 **** 0.06
1751 C 144.19686358914987 43.622009761855324 7.414188051770111 C 0.0 **** -0.24
1752 H 143.35252708305256 42.94288569942 7.297911449423168 H 0.0 **** 0.06
1753 H 143.83133677640635 44.6135107786381 7.682795220816956 H 0.0 **** 0.06
1754 H 144.74773413593653 43.680416968738825 6.474707772023805 H 0.0 **** 0.06
1755 H 144.85603991520264 43.251060371538046 8.199353027553002 H 0.0 **** 0.06
1756 C 108.2572920961149 22.63583589335616 56.77100486733485 C 0.0 **** -0.24
1757 H 108.66176723281836 22.24503513708629 55.83708166485144 H 0.0 **** 0.06
1758 H 108.4660765897977 23.703884237387626 56.838471154924065 H 0.0 **** 0.06
1759 H 108.72142077710123 22.12038068407469 57.611956352354454 H 0.0 **** 0.06
1760 H 107.1797262269721 22.47381371127676 56.79453144949622 H 0.0 **** 0.06
1761 C 80.10547928071752 89.66492748566804 23.87421695732428 C 0.0 **** -0.24
1762 H 79.55288507348206 90.43697480248446 24.408205170504857 H 0.0 **** 0.06
1763 H 80.06659503377222 88.73309828395115 24.438159542627886 H 0.0 **** 0.06
1764 H 81.14318921650239 89.97619022003627 23.7574159994889 H 0.0 **** 0.06
1765 H 79.65909527772354 89.51335324957549 22.890858162980408 H 0.0 **** 0.06
1766 C 4.287213267747887 141.28505928912966 137.22776718609148 C 0.0 **** -0.24
1767 H 4.805393762193688 141.4925320364548 136.29149375732976 H 0.0 **** 0.06
1768 H 3.58877887762975 142.09376116315622 137.44392823013996 H 0.0 **** 0.06
1769 H 5.0154983612789295 141.2074037890747 138.03531864739568 H 0.0 **** 0.06
1770 H 3.7405346689594694 140.34617413912497 137.14013683455696 H 0.0 **** 0.06
1771 C 19.161041287632223 12.076038285656466 117.26148518529855 C 0.0 **** -0.24
1772 H 18.267004866155034 12.538409202743821 117.68166249972658 H 0.0 **** 0.06
1773 H 18.869710055598667 11.33475879859941 116.51688545247764 H 0.0 **** 0.06
1774 H 19.727109659559126 11.590774343906503 118.0565313460073 H 0.0 **** 0.06
1775 H 19.778139957817203 12.841192945922955 116.79130071032206 H 0.0 **** 0.06
1776 C 77.62357900593824 129.21991589274 62.95438322688153 C 0.0 **** -0.24
1777 H 76.94082251201144 128.9148183744946 63.74712905792461 H 0.0 **** 0.06
1778 H 78.5387642239306 128.6302470064419 63.01595886954129 H 0.0 **** 0.06
1779 H 77.86362469656385 130.2766444475899 63.06850899131774 H 0.0 **** 0.06
1780 H 77.15117237431218 129.05670454775793 61.98527643928861 H 0.0 **** 0.06
1781 C 9.587643141790124 92.28234961514065 90.99434830185287 C 0.0 **** -0.24
1782 H 10.464308928210187 92.38672111231092 91.63362100272234 H 0.0 **** 0.06
1783 H 9.250831101928327 93.270087198692 90.67512089434766 H 0.0 **** 0.06
1784 H 8.79011735148157 91.78902578870752 91.54948890603323 H 0.0 **** 0.06
1785 H 9.845216076485542 91.68576838136394 90.11952666985731 H 0.0 **** 0.06
1786 C 48.897676458517125 3.735320650709003 43.95831361012708 C 0.0 **** -0.24
1787 H 49.47748564869501 3.308561924648245 44.77788622562346 H 0.0 **** 0.06
1788 H 48.2976874544557 2.9538256226386927 43.49293572346963 H 0.0 **** 0.06
1789 H 49.575580938534074 4.162316903132325 43.21921238909374 H 0.0 **** 0.06
1790 H 48.242666985298584 4.515941722269833 44.34527514691635 H 0.0 **** 0.06
1791 C 79.43088663243704 41.514544635707466 57.92763914260246 C 0.0 **** -0.24
1792 H 78.41491460713677 41.835399844154736 58.16082091163315 H 0.0 **** 0.06
1793 H 79.50112469729878 40.431292264356514 58.029181428667286 H 0.0 **** 0.06
1794 H 80.12789782190329 41.991300789191854 58.616329086095234 H 0.0 **** 0.06
1795 H 79.67610217909784 41.80114847283626 56.90510432088982 H 0.0 **** 0.06
1796 C 23.836969536425997 39.16032127577785 72.2671666079757 C 0.0 **** -0.24
1797 H 24.596662083157355 39.26535535742792 73.04135841101873 H 0.0 **** 0.06
1798 H 24.122231381175965 38.359905437879235 71.5842858904958 H 0.0 **** 0.06
1799 H 23.75072669562047 40.09670234540752 71.71449072559219 H 0.0 **** 0.06
1800 H 22.879173777106473 38.92075210636588 72.72747490626443 H 0.0 **** 0.06
1801 C 94.59506008134187 62.40247923545837 129.26993749551096 C 0.0 **** -0.24
1802 H 94.47040840939354 63.48184294005563 129.1866498972246 H 0.0 **** 0.06
1803 H 94.13669943876525 62.055004575727025 130.1967038358874 H 0.0 **** 0.06
1804 H 95.65726093789553 62.159379495654605 129.2773350347571 H 0.0 **** 0.06
1805 H 94.11606226452867 61.91407584352481 128.42125550525802 H 0.0 **** 0.06
1806 C 89.8070608163528 111.84089588643474 84.14461426866693 C 0.0 **** -0.24
1807 H 89.92756194387887 112.51580680406795 83.29758912109033 H 0.0 **** 0.06
1808 H 90.61166359647929 111.10423356529645 84.13845194038957 H 0.0 **** 0.06
1809 H 88.8468510853852 111.33035826493449 84.06975765456183 H 0.0 **** 0.06
1810 H 89.84398911062868 112.4121396954219 85.07139884079628 H 0.0 **** 0.06
1811 C 17.443697930700644 56.47614399321765 136.13695039048324 C 0.0 **** -0.24
1812 H 17.586243854927623 55.904730880613585 137.0549752682273 H 0.0 **** 0.06
1813 H 17.839990266395453 55.91031719441733 135.2931018456368 H 0.0 **** 0.06
1814 H 17.969362018170358 57.42792984231434 136.21617083086696 H 0.0 **** 0.06
1815 H 16.380232123777766 56.65927230193246 135.98514007464516 H 0.0 **** 0.06
1816 C 27.139854516659796 97.88756043741647 116.01615567179546 C 0.0 **** -0.24
1817 H 26.327467133821017 97.59894681404668 115.35014834619413 H 0.0 **** 0.06
1818 H 27.450052904547363 97.02421557235226 116.60544213271329 H 0.0 **** 0.06
1819 H 26.799861733932005 98.6799385607489 116.68277453011821 H 0.0 **** 0.06
1820 H 27.983133851197977 98.24639448097176 115.42576935402862 H 0.0 **** 0.06
1821 C 59.08394902678597 116.86559805842343 112.187726552689 C 0.0 **** -0.24
1822 H 59.16291651150706 117.63585129878585 112.95546675325043 H 0.0 **** 0.06
1823 H 59.92583816997556 116.17849172034211 112.2744990202706 H 0.0 **** 0.06
1824 H 59.09591191821772 117.33362137881782 111.20290981910783 H 0.0 **** 0.06
1825 H 58.15172782218427 116.31751267482186 112.3183858985508 H 0.0 **** 0.06
1826 C 94.75607452279428 105.89291103823169 95.4268734374512 C 0.0 **** -0.24
1827 H 95.59185732870124 105.25816415933289 95.12956135729252 H 0.0 **** 0.06
1828 H 95.13655466244673 106.8466263332281 95.79136329468918 H 0.0 **** 0.06
1829 H 94.19044985558816 105.39992467067995 96.2176231324953 H 0.0 **** 0.06
1830 H 94.1065383371866 106.0635146174267 94.56788386118791 H 0.0 **** 0.06
1831 C 92.69264676157506 133.73328128886223 48.163290687792085 C 0.0 **** -0.24
1832 H 93.49599910499627 133.29450247338784 47.57340174709273 H 0.0 **** 0.06
1833 H 91.76174022321365 133.20132533102793 47.96127863031609 H 0.0 **** 0.06
1834 H 92.57615548142711 134.78288739393236 47.895061937628554 H 0.0 **** 0.06
1835 H 92.93378662491257 133.65403900947774 49.22277219901895 H 0.0 **** 0.06
1836 C 46.702078994874626 136.95755627612502 34.12543829916516 C 0.0 **** -0.24
1837 H 47.60468085966494 136.4183369747746 34.41126039977591 H 0.0 **** 0.06
1838 H 46.32355831082185 137.51346154300148 34.98372750466609 H 0.0 **** 0.06
1839 H 45.94562924694225 136.24727428019187 33.78953321626536 H 0.0 **** 0.06
1840 H 46.93414947302216 137.65061523380078 33.316442937509755 H 0.0 **** 0.06
1841 C 2.0095944854066943 144.63399048074305 112.65361405899749 C 0.0 **** -0.24
1842 H 3.0203793324548087 145.03027410548435 112.7515231360028 H 0.0 **** 0.06
1843 H 1.814243539532299 143.93127840753937 113.46318901840361 H 0.0 **** 0.06
1844 H 1.9106350190371018 144.12239815592818 111.6955319789541 H 0.0 **** 0.06
1845 H 1.2921700432050898 145.4544153497769 112.70213405305309 H 0.0 **** 0.06
1846 C 127.13876837964966 28.702919994810316 118.47517508913803 C 0.0 **** -0.24
1847 H 128.139920612595 28.716519115050943 118.90707693833265 H 0.0 **** 0.06
1848 H 126.6093646409509 29.61170960979362 118.76104044926116 H 0.0 **** 0.06
1849 H 126.59555952543059 27.833344468092776 118.84562948131743 H 0.0 **** 0.06
1850 H 127.21276206979286 28.64986601838109 117.38930397551322 H 0.0 **** 0.06
1851 C 116.51629754101862 1.32731671107706 18.27817944290456 C 0.0 **** -0.24
1852 H 117.37068689360319 0.6653057407512222 18.422904192238065 H 0.0 **** 0.06
1853 H 116.76573920562004 2.083360706167639 17.53482948817296 H 0.0 **** 0.06
1854 H 116.26876055931734 1.811846414396996 19.22244544745419 H 0.0 **** 0.06
1855 H 115.66093257576483 0.745634039210529 17.93317367115847 H 0.0 **** 0.06
1856 C 87.57422503831424 64.00475054364802 110.03578115360895 C 0.0 **** -0.24
1857 H 88.61052593549945 63.880940907933024 110.34974693010943 H 0.0 **** 0.06
1858 H 87.53819412086038 64.61703433474895 109.13473774338675 H 0.0 **** 0.06
1859 H 87.00927198428741 64.49339718490495 110.8303461003812 H 0.0 **** 0.06
1860 H 87.13823156678752 63.02715618708538 109.82944193206927 H 0.0 **** 0.06
1861 C 13.29222297499362 5.55134876968577 2.0237796819165297 C 0.0 **** -0.24
1862 H 13.57981285689445 6.415681454718108 1.4246419732852793 H 0.0 **** 0.06
1863 H 12.698594916756349 4.869555525643008 1.4154281688546924 H 0.0 **** 0.06
1864 H 12.703912539737473 5.882311353708843 2.879010323820033 H 0.0 **** 0.06
1865 H 14.188863839434305 5.039493676455173 2.3746122079183003 H 0.0 **** 0.06
1866 C 43.60415102482611 33.34916947542847 119.86887672477138 C 0.0 **** -0.24
1867 H 43.77757906861929 33.69120744716672 118.8482359136546 H 0.0 **** 0.06
1868 H 43.181000810641805 34.16239092098445 120.45766839221784 H 0.0 **** 0.06
1869 H 44.54859023778535 33.0323464069357 120.31002699694619 H 0.0 **** 0.06
1870 H 42.9095194774863 32.50910482252161 119.85578850517987 H 0.0 **** 0.06
1871 C 130.05568033752684 21.08458361207387 22.253045912511794 C 0.0 **** -0.24
1872 H 129.31304432539798 21.638865616825264 21.67945712833579 H 0.0 **** 0.06
1873 H 130.73070297736706 20.568279109545543 21.570535846410678 H 0.0 **** 0.06
1874 H 129.5530928308932 20.35646330693939 22.88960974272282 H 0.0 **** 0.06
1875 H 130.62544199598196 21.77689539676186 22.87363110662347 H 0.0 **** 0.06
1876 C 60.49120266841777 84.66136695734502 65.02549783169701 C 0.0 **** -0.24
1877 H 60.478545885674976 84.83906683706317 66.10065709323038 H 0.0 **** 0.06
1878 H 61.17881425718849 85.36154252058549 64.54939862882793 H 0.0 **** 0.06
1879 H 59.48942344680904 84.8041149602613 64.62182563513434 H 0.0 **** 0.06
1880 H 60.81961896457767 83.64006090400568 64.83011968129955 H 0.0 **** 0.06
1881 C 17.132024240958174 101.99639225541999 21.210904219755946 C 0.0 **** -0.24
1882 H 17.461487237359506 102.40762191927544 20.256846996987193 H 0.0 **** 0.06
1883 H 17.24777395044697 100.91269860916489 21.197790253629144 H 0.0 **** 0.06
1884 H 16.084681446920058 102.24902850980007 21.373205936078506 H 0.0 **** 0.06
1885 H 17.735367803876954 102.41809814184764 22.015788470165127 H 0.0 **** 0.06
1886 C 10.121547662670793 101.57871150173963 71.42667894876664 C 0.0 **** -0.24
1887 H 10.989135913714307 101.00902904735852 71.09244331070929 H 0.0 **** 0.06
1888 H 10.455318701983941 102.47086612958077 71.95686563715932 H 0.0 **** 0.06
1889 H 9.518184153157108 100.96252165057876 72.09330361090053 H 0.0 **** 0.06
1890 H 9.524750185759018 101.87108233246002 70.56278025129748 H 0.0 **** 0.06
1891 C 22.1048063181903 106.90243592251171 143.43394162799606 C 0.0 **** -0.24
1892 H 21.85309099569443 105.99981439134113 142.877734260244 H 0.0 **** 0.06
1893 H 22.95358073834504 106.69998973932947 144.0885518190961 H 0.0 **** 0.06
1894 H 21.24877487818361 107.21074875265755 144.0332464096564 H 0.0 **** 0.06
1895 H 22.365855083716895 107.6980353340647 142.73563937029795 H 0.0 **** 0.06
1896 C 126.49505869172935 123.38872484273176 94.08901304232356 C 0.0 **** -0.24
1897 H 126.91466018606519 124.00973576960499 94.87973983557595 H 0.0 **** 0.06
1898 H 127.17110410835778 123.38297049050183 93.23377775552355 H 0.0 **** 0.06
1899 H 125.52946974464709 123.79246452135854 93.78478098312038 H 0.0 **** 0.06
1900 H 126.3644602493481 122.37118491293464 94.45585958688366 H 0.0 **** 0.06
1901 C 53.62295754592091 81.99547806791377 114.75107782805874 C 0.0 **** -0.24
1902 H 54.45715211863596 81.6434434372116 115.35765998631173 H 0.0 **** 0.06
1903 H 53.508693916493556 81.34874667785726 113.88070764146697 H 0.0 **** 0.06
1904 H 53.81747998999167 83.01646016836592 114.42292472642409 H 0.0 **** 0.06
1905 H 52.70792465358822 81.97229216655427 115.34386966790318 H 0.0 **** 0.06
1906 C 85.1623440695374 61.75368503454854 92.23603737957325 C 0.0 **** -0.24
1907 H 85.6136958160393 61.124340896180684 91.46871575633017 H 0.0 **** 0.06
1908 H 85.13939017330559 61.21210603988425 93.18192438476527 H 0.0 **** 0.06
1909 H 84.14450198698623 62.01261461919029 91.94082567062202 H 0.0 **** 0.06
1910 H 85.74995073501965 62.66451468928864 92.35216513330246 H 0.0 **** 0.06
1911 C 57.76519574767917 108.01062404545972 11.069259843800154 C 0.0 **** -0.24
1912 H 57.250277357047 108.80917320999934 10.533798134558111 H 0.0 **** 0.06
1913 H 57.20374799925007 107.08240004070272 10.962876006284489 H 0.0 **** 0.06
1914 H 57.84094722336994 108.27128685367255 12.124649101734462 H 0.0 **** 0.06
1915 H 58.76441409347318 107.88098867985418 10.654225821886456 H 0.0 **** 0.06
1916 C 136.68160139629515 17.320658341088 53.22625702863505 C 0.0 **** -0.24
1917 H 137.07483825730478 18.182620078923094 52.687587727577124 H 0.0 **** 0.06
1918 H 137.4811344379491 16.861835907427 53.80983725765739 H 0.0 **** 0.06
1919 H 136.2885966499333 16.594455497047022 52.51383534848435 H 0.0 **** 0.06
1920 H 135.88240640613034 17.642912354083244 53.89390785402415 H 0.0 **** 0.06
1921 C 21.421515268058187 139.21947866380225 96.72399033180864 C 0.0 **** -0.24
1922 H 20.745519968519886 139.3167653112082 97.573555846497 H 0.0 **** 0.06
1923 H 21.939012026046925 138.26133410834646 96.77898166007849 H 0.0 **** 0.06
1924 H 22.150738328954077 140.02966794654708 96.74520289281169 H 0.0 **** 0.06
1925 H 20.84866491697929 139.27036833683462 95.79756351187703 H 0.0 **** 0.06
1926 C 80.01246089964914 12.198693008720028 31.295345538306123 C 0.0 **** -0.24
1927 H 80.6938053893848 12.033973068039444 32.131122423474466 H 0.0 **** 0.06
1928 H 79.09025776194572 11.643800152676619 31.465651602516715 H 0.0 **** 0.06
1929 H 80.48062757202311 11.853780890830961 30.373112640116886 H 0.0 **** 0.06
1930 H 79.78801087693752 13.261747897037338 31.214078429546902 H 0.0 **** 0.06
1931 C 15.253811398971607 86.57590187201993 3.0095959907897623 C 0.0 **** -0.24
1932 H 14.527601340961297 86.9690741870232 3.720651794049843 H 0.0 **** 0.06
1933 H 15.956282910237661 85.9247255187529 3.5306565136461927 H 0.0 **** 0.06
1934 H 15.796360306841876 87.40173697344949 2.549704749538705 H 0.0 **** 0.06
1935 H 14.735001037845763 86.008070808854 2.237370905924365 H 0.0 **** 0.06
1936 C 27.610657890122695 129.11342512644904 5.064917736542672 C 0.0 **** -0.24
1937 H 26.92222605255813 128.29707093461224 4.847636093797064 H 0.0 **** 0.06
1938 H 28.28782924538973 129.2513661506245 4.22114751394507 H 0.0 **** 0.06
1939 H 28.18724506338515 128.87495366278796 5.958401070807373 H 0.0 **** 0.06
1940 H 27.04521264632905 130.0305785882681 5.230507922323014 H 0.0 **** 0.06
1941 C 32.803005475416114 63.930526820364065 126.20133904661245 C 0.0 **** -0.24
1942 H 33.20073793717003 63.84561899515231 125.19034922458883 H 0.0 **** 0.06
1943 H 32.74540860083388 64.98223282570265 126.48268224388514 H 0.0 **** 0.06
1944 H 33.459051750615316 63.40345127144249 126.89474267132726 H 0.0 **** 0.06
1945 H 31.806765955499458 63.48875174119101 126.23846768278003 H 0.0 **** 0.06
1946 C 93.6628808584077 53.598096064533934 18.565549720873136 C 0.0 **** -0.24
1947 H 93.63482831626067 54.603095004070326 18.98760080698392 H 0.0 **** 0.06
1948 H 92.73454080676089 53.0780773281862 18.80456272009711 H 0.0 **** 0.06
1949 H 94.50537655407977 53.051062980217466 18.988897935811423 H 0.0 **** 0.06
1950 H 93.77709709387754 53.661555460264765 17.484124094474396 H 0.0 **** 0.06
1951 C 69.92768401784735 129.81901863540762 107.6693231876938 C 0.0 **** -0.24
1952 H 70.19025078343606 129.11397008831145 106.88062163735498 H 0.0 **** 0.06
1953 H 69.7887413303157 129.27985036448942 108.60688995467649 H 0.0 **** 0.06
1954 H 69.0048674161684 130.33378746158732 107.4052769931356 H 0.0 **** 0.06
1955 H 70.72958973949534 130.54817483000838 107.78575068234824 H 0.0 **** 0.06
1956 C 104.00325585459731 89.87926778380597 29.17568019825748 C 0.0 **** -0.24
1957 H 103.40787764185734 90.37210086422147 29.944636802468096 H 0.0 **** 0.06
1958 H 104.5765047932313 90.62528986749541 28.626100757185483 H 0.0 **** 0.06
1959 H 103.3415699671148 89.35011463319331 28.488839830695426 H 0.0 **** 0.06
1960 H 104.68450199459332 89.16838324290575 29.64318929868672 H 0.0 **** 0.06
1961 C 107.68710791785684 35.43118770528173 125.66451400191258 C 0.0 **** -0.24
1962 H 108.32434220528829 35.030742412779574 126.45327058482528 H 0.0 **** 0.06
1963 H 107.84334169266343 36.50765209316134 125.58263357873292 H 0.0 **** 0.06
1964 H 106.64296062833803 35.23283201434268 125.90621288464942 H 0.0 **** 0.06
1965 H 107.93849340971953 34.95349732159002 124.71716392875831 H 0.0 **** 0.06
1966 C 19.295645942984436 48.593794007693305 57.385789338218274 C 0.0 **** -0.24
1967 H 18.297446546772903 48.15872903419779 57.33209249514671 H 0.0 **** 0.06
1968 H 20.0415485680399 47.801541873879216 57.326268721010194 H 0.0 **** 0.06
1969 H 19.407840173525358 49.12958453756687 58.328775495702374 H 0.0 **** 0.06
1970 H 19.434874252821146 49.28710326061156 56.55577988512343 H 0.0 **** 0.06
1971 C 99.61613166601317 117.00430475870694 75.4998995496469 C 0.0 **** -0.24
1972 H 99.04431220181083 117.51377992689093 74.72433881899592 H 0.0 **** 0.06
1973 H 100.37319502117344 117.68074177226787 75.89567714704327 H 0.0 **** 0.06
1974 H 100.0993502263396 116.12418550934571 75.07525400243553 H 0.0 **** 0.06
1975 H 98.94499100191709 116.69837548742673 76.3029832464781 H 0.0 **** 0.06
1976 C 130.08185455883682 5.087736090302599 136.32024729911103 C 0.0 **** -0.24
1977 H 130.25663671610678 4.5557696857236465 135.38544474919337 H 0.0 **** 0.06
1978 H 129.11542581763575 5.5903037153073 136.27768935522025 H 0.0 **** 0.06
1979 H 130.86954765329872 5.827658229374265 136.46947801227859 H 0.0 **** 0.06
1980 H 130.0880788938683 4.378864421500111 137.1480371860381 H 0.0 **** 0.06
1981 C 126.42574775191417 12.91951439187062 23.717586412736523 C 0.0 **** -0.24
1982 H 126.66418196772031 11.887547580281336 23.973685006922494 H 0.0 **** 0.06
1983 H 126.43374114079324 13.529123226606231 24.622432903925187 H 0.0 **** 0.06
1984 H 125.43815237934962 12.961415234518626 23.259956073887622 H 0.0 **** 0.06
1985 H 127.16843898114439 13.300318344376734 23.01587135398961 H 0.0 **** 0.06
1986 C 94.76421373813636 31.70332300624493 0.44383198074916663 C 0.0 **** -0.24
1987 H 95.12505265648056 32.576861257082655 0.9863179918851586 H 0.0 **** 0.06
1988 H 94.95709715007763 31.831802036431334 -0.6214074475629161 H 0.0 **** 0.06
1989 H 93.69161759866947 31.59257121758636 0.6077847945167321 H 0.0 **** 0.06
1990 H 95.28047442200398 30.81298894417578 0.803184275334587 H 0.0 **** 0.06
1991 C 127.96050841756002 9.573099723686084 133.18327159296885 C 0.0 **** -0.24
1992 H 128.68648076946585 9.881562485422421 132.4315936525506 H 0.0 **** 0.06
1993 H 127.81554665061716 8.493329050525404 133.1268591543493 H 0.0 **** 0.06
1994 H 127.0116706819814 10.077365166916366 133.00016449086627 H 0.0 **** 0.06
1995 H 128.32871173681835 9.83878296827828 134.17436373789948 H 0.0 **** 0.06
1996 C 110.68163076027928 106.61025574072619 120.21695301925524 C 0.0 **** -0.24
1997 H 109.68009297993375 106.27480660386004 120.48540381297704 H 0.0 **** 0.06
1998 H 111.41985920076327 105.96829293655213 120.69823511070894 H 0.0 **** 0.06
1999 H 110.82193881446078 107.63885695595576 120.5499261520406 H 0.0 **** 0.06
2000 H 110.80437127375579 106.55819023575674 119.13571817379386 H 0.0 **** 0.06
2001 C 101.81299685667379 91.84889133659203 34.64583474201064 C 0.0 **** -0.24
2002 H 101.08048403303015 91.04931919819242 34.53937246330576 H 0.0 **** 0.06
2003 H 102.7303330676242 91.4462696481219 35.076239181439256 H 0.0 **** 0.06
2004 H 101.41332616426378 92.62350643122693 35.30102992699891 H 0.0 **** 0.06
2005 H 102.0286126706146 92.2770356841657 33.666996590445144 H 0.0 **** 0.06
2006 C 126.93168492578343 56.574244355740205 0.7717994742043857 C 0.0 **** -0.24
2007 H 126.0988919545469 55.88595789336328 0.6229016294071812 H 0.0 **** 0.06
2008 H 127.56251983372562 56.57915263115329 -0.11781627461675725 H 0.0 **** 0.06
2009 H 127.51879626227071 56.25233465876478 1.6315443753813668 H 0.0 **** 0.06
2010 H 126.54581350172805 57.577695781160614 0.9495137009719485 H 0.0 **** 0.06
2011 C 61.27344319420578 4.444475764960927 22.490406810897582 C 0.0 **** -0.24
2012 H 60.9510474638127 5.246280587107009 21.826744335977423 H 0.0 **** 0.06
2013 H 61.82501298233993 4.868016596936759 23.33001674945291 H 0.0 **** 0.06
2014 H 61.91654403948459 3.7559800262674834 21.94158730701122 H 0.0 **** 0.06
2015 H 60.400385301001165 3.9077961000335577 22.861743249578694 H 0.0 **** 0.06
2016 C 139.41356688808187 19.999254589748887 58.57217111260353 C 0.0 **** -0.24
2017 H 139.521186571739 21.039015185386575 58.87914464906851 H 0.0 **** 0.06
2018 H 138.37367846021527 19.802825635236985 58.31010691648589 H 0.0 **** 0.06
2019 H 139.71120757858282 19.346161981801885 59.39222778128354 H 0.0 **** 0.06
2020 H 140.04898515670183 19.808557780261452 57.706797617469704 H 0.0 **** 0.06
2021 C 110.41931543008208 120.36208462752101 36.16092881057915 C 0.0 **** -0.24
2022 H 111.24638562104447 120.92077528198753 36.6007135457386 H 0.0 **** 0.06
2023 H 110.08421714720122 120.86384184607455 35.25395655774177 H 0.0 **** 0.06
2024 H 109.59645863051794 120.31084028859861 36.87401127852098 H 0.0 **** 0.06
2025 H 110.75288626868037 119.35288429952423 35.91743932195067 H 0.0 **** 0.06
2026 C 5.519616763560123 78.15821421627334 21.83461862412699 C 0.0 **** -0.24
2027 H 5.268657246982656 79.21088711493684 21.703603384456187 H 0.0 **** 0.06
2028 H 6.556164136529048 77.99241870184204 21.539709618142453 H 0.0 **** 0.06
2029 H 4.862400495039537 77.5485242011008 21.21417782917922 H 0.0 **** 0.06
2030 H 5.390190837505003 77.88237099002481 22.88126964050261 H 0.0 **** 0.06
2031 C 28.44872387353786 118.6811825963628 61.418121293320326 C 0.0 **** -0.24
2032 H 29.275533990725023 118.16610812577649 60.928523255100146 H 0.0 **** 0.06
2033 H 28.363146986311165 119.69222152356129 61.01695563759098 H 0.0 **** 0.06
2034 H 28.635531744896582 118.73007483466067 62.491019367494275 H 0.0 **** 0.06
2035 H 27.522565040511097 118.13810326820176 61.2344708568133 H 0.0 **** 0.06
2036 C 137.28224985045327 76.35458205226256 62.73075297638036 C 0.0 **** -0.24
2037 H 137.4358442511709 75.48987911608877 63.37713408123875 H 0.0 **** 0.06
2038 H 136.76733255318678 77.13748713399201 63.288746493095346 H 0.0 **** 0.06
2039 H 136.67729572981366 76.0626794703621 61.87203398179304 H 0.0 **** 0.06
2040 H 138.2464823453225 76.727316510738 62.38603919722408 H 0.0 **** 0.06
2041 C 10.972114590778148 130.09760738923904 111.50505101167103 C 0.0 **** -0.24
2042 H 10.915593579364469 130.4204232013224 110.46556930644614 H 0.0 **** 0.06
2043 H 11.831832329714189 129.4394490166614 111.63491982346964 H 0.0 **** 0.06
2044 H 10.060504309353036 129.5617086023188 111.76937104625416 H 0.0 **** 0.06
2045 H 11.08119278303613 130.96955824788964 112.15010957722463 H 0.0 **** 0.06
2046 C 74.64066952937185 35.53659741983472 42.0162042055743 C 0.0 **** -0.24
2047 H 74.12331798112473 36.493777989797074 41.954312284491635 H 0.0 **** 0.06
2048 H 73.9231555501455 34.725614819141384 41.883125656203745 H 0.0 **** 0.06
2049 H 75.11755690729795 35.44360390505728 42.991974432388844 H 0.0 **** 0.06
2050 H 75.39930443379788 35.48267443429307 41.23437854789047 H 0.0 **** 0.06
2051 C 65.27817568235 103.5418727164013 78.75240647960115 C 0.0 **** -0.24
2052 H 66.09266761025404 103.70210744277969 78.04642021807199 H 0.0 **** 0.06
2053 H 65.60320218097773 102.85509532475162 79.53404098032783 H 0.0 **** 0.06
2054 H 64.42164370902331 103.11796626878811 78.2285809525402 H 0.0 **** 0.06
2055 H 64.99369163866638 104.49425853513372 79.20066534754524 H 0.0 **** 0.06
2056 C 31.492335730333167 59.77370424783015 19.226799986804977 C 0.0 **** -0.24
2057 H 32.581701791939054 59.803172773937234 19.223049745486676 H 0.0 **** 0.06
2058 H 31.122043819590118 60.1571126120958 20.176957748302613 H 0.0 **** 0.06
2059 H 31.15614979480395 58.74494854317143 19.092898287267303 H 0.0 **** 0.06
2060 H 31.109467787381703 60.38960111355598 18.412058214109607 H 0.0 **** 0.06
2061 C 115.8006080371464 130.3422446944231 71.67505705945031 C 0.0 **** -0.24
2062 H 115.40387882703844 129.45364434789403 71.1843247065205 H 0.0 **** 0.06
2063 H 116.80851420488695 130.13747916333324 72.03784789220198 H 0.0 **** 0.06
2064 H 115.15933910517849 130.61011684674702 72.51585170892729 H 0.0 **** 0.06
2065 H 115.82997467020154 131.16765910783047 70.96431764916382 H 0.0 **** 0.06
2066 C 52.518457304480265 47.78019362110825 96.7212468129432 C 0.0 **** -0.24
2067 H 52.36135229569753 46.916541466788786 97.36776741526552 H 0.0 **** 0.06
2068 H 52.331661972300026 48.693782196399766 97.28411823638379 H 0.0 **** 0.06
2069 H 51.83559409898666 47.728171707484094 95.87364759735436 H 0.0 **** 0.06
2070 H 53.54722676059171 47.779854211018844 96.3597648242137 H 0.0 **** 0.06
2071 C 70.82524146050879 122.03236057735182 29.789874166857714 C 0.0 **** -0.24
2072 H 71.45226666100437 121.92376293886883 30.674884252344214 H 0.0 **** 0.06
2073 H 70.06014277337951 122.78607991143639 29.977277694190946 H 0.0 **** 0.06
2074 H 70.34894671226192 121.07799267995165 29.563003782787007 H 0.0 **** 0.06
2075 H 71.43994679432654 122.3407300020047 28.943987907752387 H 0.0 **** 0.06
2076 C 122.42882092237868 120.6439240450528 53.29328412219144 C 0.0 **** -0.24
2077 H 121.55780105698044 120.18226897331094 52.827915561926176 H 0.0 **** 0.06
2078 H 123.1729508045796 120.86796632036253 52.528832238275385 H 0.0 **** 0.06
2079 H 122.85494025900026 119.95838503073655 54.02580338354903 H 0.0 **** 0.06
2080 H 122.12855608865216 121.56645801402802 53.78984629253165 H 0.0 **** 0.06
2081 C 6.829884946524125 52.4495029279542 111.67244806084473 C 0.0 **** -0.24
2082 H 7.6498072279508875 51.95531763389384 112.1944061819752 H 0.0 **** 0.06
2083 H 6.130292277386982 52.8602789411532 112.39991972986182 H 0.0 **** 0.06
2084 H 6.3145564768702656 51.726330341541214 111.04011912171596 H 0.0 **** 0.06
2085 H 7.2272996124978945 53.25441304199967 111.05417693348097 H 0.0 **** 0.06
2086 C 98.3388176713512 56.15302283288872 18.613631574989853 C 0.0 **** -0.24
2087 H 97.7568212900901 57.073703420729714 18.64614825409953 H 0.0 **** 0.06
2088 H 97.92545567972977 55.487270167685125 17.856236609773873 H 0.0 **** 0.06
2089 H 98.2996565081815 55.66379901819876 19.587621524229803 H 0.0 **** 0.06
2090 H 99.37466732079969 56.386978879029 18.366548597440925 H 0.0 **** 0.06
2091 C 10.83629103412693 98.58401872823653 93.99920925283546 C 0.0 **** -0.24
2092 H 11.301835033401005 98.64143764908816 94.9831522144592 H 0.0 **** 0.06
2093 H 10.390457066550454 99.54789216310982 93.75236719877434 H 0.0 **** 0.06
2094 H 10.061758329597382 97.81644831056511 94.00899118475962 H 0.0 **** 0.06
2095 H 11.590914357338278 98.32962497212782 93.25467357808996 H 0.0 **** 0.06
2096 C 8.553554140033157 122.49653754645635 68.77900345356238 C 0.0 **** -0.24
2097 H 9.358560813441755 121.8906433377307 69.19469246348547 H 0.0 **** 0.06
2098 H 8.161716795173362 123.15893889515866 69.55110115455898 H 0.0 **** 0.06
2099 H 7.75736501608489 121.84547653810392 68.41967033931644 H 0.0 **** 0.06
2100 H 8.938743565032524 123.09155991584731 67.9502788723745 H 0.0 **** 0.06
2101 C 18.462957226663676 51.39910795489354 35.177697758391744 C 0.0 **** -0.24
2102 H 18.276726605020606 51.796629245195675 36.1750867742673 H 0.0 **** 0.06
2103 H 18.6545715018272 50.32800934612945 35.24371780147712 H 0.0 **** 0.06
2104 H 19.33061156342267 51.898049402651054 34.744120369375054 H 0.0 **** 0.06
2105 H 17.590512351896713 51.57493293769562 34.54835014812625 H 0.0 **** 0.06
2106 C 22.33846688334944 32.606938958728335 119.44913061988761 C 0.0 **** -0.24
2107 H 21.7684197504812 33.47677389489726 119.12497898451834 H 0.0 **** 0.06
2108 H 23.313568586938743 32.60805975830627 118.9617177346339 H 0.0 **** 0.06
2109 H 21.79952362362178 31.698285047094032 119.17936004624549 H 0.0 **** 0.06
2110 H 22.472118726998872 32.64166642662835 120.53012047297908 H 0.0 **** 0.06
2111 C 80.35720351161362 107.54291275755621 95.6833400341878 C 0.0 **** -0.24
2112 H 79.70772294122256 108.38653580907756 95.44953662140203 H 0.0 **** 0.06
2113 H 81.36456562917428 107.90707887239803 95.88758876850666 H 0.0 **** 0.06
2114 H 80.38235168491818 106.85815773873203 94.83602958234438 H 0.0 **** 0.06
2115 H 79.97396325904282 107.02266719414216 96.5606292214179 H 0.0 **** 0.06
2116 C 62.41129564082841 26.08470622840928 43.96225320982279 C 0.0 **** -0.24
2117 H 61.69472013423025 26.124684846013977 44.78276046695797 H 0.0 **** 0.06
2118 H 62.44724653684443 25.071099733863875 43.56160454566094 H 0.0 **** 0.06
2119 H 63.39827499564866 26.365859630034784 44.32802549506414 H 0.0 **** 0.06
2120 H 62.10383582323118 26.774696415304106 43.177401737388436 H 0.0 **** 0.06
2121 C 113.03160960392181 139.35097705054625 76.97385983622024 C 0.0 **** -0.24
2122 H 112.67949348615456 140.38007646319656 77.05344997448833 H 0.0 **** 0.06
2123 H 114.06302977815729 139.3467513546297 76.62130421538603 H 0.0 **** 0.06
2124 H 112.40341572617372 138.80623813343072 76.2693508987133 H 0.0 **** 0.06
2125 H 112.97951733361056 138.87359302088208 77.95201920439763 H 0.0 **** 0.06
2126 C 42.66474085635406 20.75772491777201 70.46148699721533 C 0.0 **** -0.24
2127 H 42.986255410031134 20.981635528640993 69.44431526715204 H 0.0 **** 0.06
2128 H 43.53405243121969 20.726882715137492 71.11898534560629 H 0.0 **** 0.06
2129 H 42.16108183086622 19.79132049234255 70.4798707463383 H 0.0 **** 0.06
2130 H 41.97759260393359 21.532201772538343 70.80407980486235 H 0.0 **** 0.06
2131 C 124.33729623637883 19.607923467752777 79.19955766385546 C 0.0 **** -0.24
2132 H 125.2291386449925 20.18897229063149 78.96404907401292 H 0.0 **** 0.06
2133 H 123.68615266721102 20.190564065837826 79.85121315771597 H 0.0 **** 0.06
2134 H 124.62703931670544 18.68621034878803 79.70409187314542 H 0.0 **** 0.06
2135 H 123.80712901133911 19.366225952707623 78.27751754061283 H 0.0 **** 0.06
2136 C 59.52272870693119 0.5976872125966963 59.57989338150985 C 0.0 **** -0.24
2137 H 59.42970173198037 -0.06857365435686802 60.43808880052394 H 0.0 **** 0.06
2138 H 58.85080921531333 0.26617599926058233 58.787660178318546 H 0.0 **** 0.06
2139 H 60.550426580542066 0.5817985912052848 59.21736680691458 H 0.0 **** 0.06
2140 H 59.25895586983032 1.6127863155863054 59.87866862964323 H 0.0 **** 0.06
2141 C 50.64895853251734 26.671052559422264 103.40932118409796 C 0.0 **** -0.24
2142 H 50.56879397710179 26.36789394559446 102.36485986617521 H 0.0 **** 0.06
2143 H 50.00646525947462 27.53375727826227 103.5863886064073 H 0.0 **** 0.06
2144 H 51.682646920076024 26.936331139093 103.63214287933363 H 0.0 **** 0.06
2145 H 50.33820221539369 25.847255230254632 104.05127237676152 H 0.0 **** 0.06
2146 C 113.61447827267898 39.94871257426501 140.83334661304514 C 0.0 **** -0.24
2147 H 112.7425737472521 39.66617280689717 141.4236581348673 H 0.0 **** 0.06
2148 H 114.45761697739852 40.13743216865283 141.49744668877477 H 0.0 **** 0.06
2149 H 113.39044709851657 40.85089534739586 140.26470863876233 H 0.0 **** 0.06
2150 H 113.86569963033014 39.14021698904535 140.146866014973 H 0.0 **** 0.06
2151 C 38.46357741828598 13.833656480607686 124.25005286787399 C 0.0 **** -0.24
2152 H 38.494154597283796 12.75762260062129 124.07800917015737 H 0.0 **** 0.06
2153 H 38.073212974244484 14.030534190491153 125.24888603494469 H 0.0 **** 0.06
2154 H 37.81670139897159 14.301146008206388 123.50774171337974 H 0.0 **** 0.06
2155 H 39.470197433586975 14.242746038586574 124.16440960125817 H 0.0 **** 0.06
2156 C 86.53344806619168 97.27265993900092 68.11718160630485 C 0.0 **** -0.24
2157 H 86.35797395736978 96.22523242895603 67.8735295838539 H 0.0 **** 0.06
2158 H 86.25456586995409 97.89522680527479 67.26686335569391 H 0.0 **** 0.06
2159 H 87.58850134339295 97.41983175060902 68.3451374747535 H 0.0 **** 0.06
2160 H 85.93275109404982 97.55034877116377 68.98319601091805 H 0.0 **** 0.06
2161 C 8.01738266349949 56.97580730671916 112.08177900957836 C 0.0 **** -0.24
2162 H 8.43597801873102 55.97432345692181 112.18069775459944 H 0.0 **** 0.06
2163 H 8.687694243174093 57.697057652840954 112.55038573690459 H 0.0 **** 0.06
2164 H 7.044880125017784 57.01225896238208 112.5712163619967 H 0.0 **** 0.06
2165 H 7.903246425365268 57.219356447280546 111.02571148772566 H 0.0 **** 0.06
2166 C 127.91257259297132 51.94187211264719 16.320848747655447 C 0.0 **** -0.24
2167 H 128.38452855798013 52.88912877725902 16.0617884588045 H 0.0 **** 0.06
2168 H 127.20009444113819 51.66581296311716 15.543566867567591 H 0.0 **** 0.06
2169 H 127.39014715810467 52.044471183581535 17.272647070651743 H 0.0 **** 0.06
2170 H 128.6750184065719 51.16705802916792 16.40756357255802 H 0.0 **** 0.06
2171 C 72.48275580222293 90.20325919971673 135.5225491503505 C 0.0 **** -0.24
2172 H 72.95315337637426 89.69309262284938 134.68219144860134 H 0.0 **** 0.06
2173 H 73.16425282926893 90.20437590812605 136.3741914008186 H 0.0 **** 0.06
2174 H 71.56320637403314 89.68371889763775 135.7938509445615 H 0.0 **** 0.06
2175 H 72.25069236215847 91.23063540225762 135.2406313847289 H 0.0 **** 0.06
2176 C 141.10083655178045 54.90896994658344 80.17597124048983 C 0.0 **** -0.24
2177 H 140.49002291110395 54.68700352379693 79.30065899974802 H 0.0 **** 0.06
2178 H 141.2082053252502 54.00950920527653 80.781897969057 H 0.0 **** 0.06
2179 H 140.61932928538172 55.68940943453252 80.76499657527802 H 0.0 **** 0.06
2180 H 142.08487392589583 55.25106596182205 79.85434771890193 H 0.0 **** 0.06
2181 C 109.87872076584563 40.90164553818596 85.09751149257936 C 0.0 **** -0.24
2182 H 110.24232828289297 40.139696632046466 85.78751828140784 H 0.0 **** 0.06
2183 H 110.47990119283384 40.88516948294989 84.18825820301436 H 0.0 **** 0.06
2184 H 109.95423038038547 41.88240768117598 85.56669887228414 H 0.0 **** 0.06
2185 H 108.8373879351604 40.69793773522403 84.84734758933763 H 0.0 **** 0.06
2186 C 61.981357299179024 136.9515125011672 37.044605893759126 C 0.0 **** -0.24
2187 H 62.883308370725445 137.48895051713956 37.33913532124015 H 0.0 **** 0.06
2188 H 61.94083334115868 135.99560436446575 37.566919347835594 H 0.0 **** 0.06
2189 H 61.99827328494068 136.77744377989842 35.96780511702772 H 0.0 **** 0.06
2190 H 61.10422385190469 137.54491774189214 37.30289456346523 H 0.0 **** 0.06
2191 C 128.28941355480518 93.55194405275233 2.087850076763914 C 0.0 **** -0.24
2192 H 128.84424050202213 93.3943820062378 3.0130328583042 H 0.0 **** 0.06
2193 H 128.98457540566318 93.80574876545097 1.2865772547178835 H 0.0 **** 0.06
2194 H 127.57999892083217 94.36784783936525 2.2246593099474694 H 0.0 **** 0.06
2195 H 127.75051550238679 92.64127647102924 1.8271925961736315 H 0.0 **** 0.06
2196 C 19.744433470346152 81.99309021992318 37.99837315229959 C 0.0 **** -0.24
2197 H 20.41945492603447 81.80776207929807 38.83389239843541 H 0.0 **** 0.06
2198 H 20.29786152213392 81.91713279426145 37.061202487378324 H 0.0 **** 0.06
2199 H 19.32017796944959 82.99311423477505 38.08877304682835 H 0.0 **** 0.06
2200 H 18.942894599536615 81.25508750671818 38.0084375200114 H 0.0 **** 0.06
2201 C 11.459667597832095 8.71974242340077 128.36232534108382 C 0.0 **** -0.24
2202 H 12.20999944262772 7.938931936584183 128.48255828094054 H 0.0 **** 0.06
2203 H 10.46649965740275 8.292994663967583 128.50514943906734 H 0.0 **** 0.06
2204 H 11.532252382828375 9.142696264392544 127.36040199585332 H 0.0 **** 0.06
2205 H 11.62775713776901 9.503586079876236 129.10032662198878 H 0.0 **** 0.06
2206 C 6.544110117799221 109.8399185221439 67.88637058777758 C 0.0 **** -0.24
2207 H 7.583918213705147 109.95042460915025 68.19358942095826 H 0.0 **** 0.06
2208 H 6.29359896220268 110.61852669673024 67.16490858004684 H 0.0 **** 0.06
2209 H 5.896363008919025 109.93056349422349 68.75839585895758 H 0.0 **** 0.06
2210 H 6.401888265125137 108.86119386992581 67.4292799504922 H 0.0 **** 0.06
2211 C 61.12766231384089 81.6965543118551 12.781062252764286 C 0.0 **** -0.24
2212 H 61.29473799647221 81.11949803156119 11.872099866745145 H 0.0 **** 0.06
2213 H 60.06120479290891 81.70993655967897 13.011243208495614 H 0.0 **** 0.06
2214 H 61.480144405632785 82.71818541396556 12.633014149904511 H 0.0 **** 0.06
2215 H 61.67289066361073 81.23996803119519 13.60731943206747 H 0.0 **** 0.06
2216 C 113.8685587925053 113.46169564593684 28.578834297678313 C 0.0 **** -0.24
2217 H 113.13013579664246 113.02498194066267 27.907004347426273 H 0.0 **** 0.06
2218 H 114.41993115591882 114.24233774510837 28.053432179646578 H 0.0 **** 0.06
2219 H 114.55982604291384 112.68764979865291 28.91110599469925 H 0.0 **** 0.06
2220 H 113.36323239583444 113.89265739848194 29.442767205467838 H 0.0 **** 0.06
2221 C 145.37012778650387 5.557968959427711 54.482162346970995 C 0.0 **** -0.24
2222 H 144.40267933097786 5.889255540623708 54.858347866398475 H 0.0 **** 0.06
2223 H 145.32528919815974 5.465529219643457 53.396753061643466 H 0.0 **** 0.06
2224 H 145.61932560434363 4.591205648217539 54.91948492681749 H 0.0 **** 0.06
2225 H 146.1338302050156 6.2868590361428005 54.75324123629218 H 0.0 **** 0.06
2226 C 62.268180757722774 73.3248037503115 133.71298869745883 C 0.0 **** -0.24
2227 H 62.03788852909388 72.2665133742911 133.83325855487104 H 0.0 **** 0.06
2228 H 62.758040805322054 73.48274458782879 132.75164184775568 H 0.0 **** 0.06
2229 H 62.93068168557798 73.64650034665982 134.51617341511937 H 0.0 **** 0.06
2230 H 61.34513351469484 73.90293486217763 133.75000329008745 H 0.0 **** 0.06
2231 C 67.49792719741215 64.10485690303824 14.546782705443995 C 0.0 **** -0.24
2232 H 67.97273768106321 64.28252247039146 13.581498873121497 H 0.0 **** 0.06
2233 H 67.85074726055996 63.15799067724194 14.955620391524327 H 0.0 **** 0.06
2234 H 66.41642375600732 64.06479682659827 14.41740191787818 H 0.0 **** 0.06
2235 H 67.75233645386737 64.91377528862745 15.23046596685662 H 0.0 **** 0.06
2236 C 15.197025349304539 34.97316047398357 18.752759359781948 C 0.0 **** -0.24
2237 H 14.87539746921182 34.42059880599112 19.635539063204988 H 0.0 **** 0.06
2238 H 16.103122402754146 34.51996801953891 18.35053103046235 H 0.0 **** 0.06
2239 H 15.39938243733934 36.0088272242063 19.026802991202544 H 0.0 **** 0.06
2240 H 14.4095109829886 34.94368374478739 17.999320464718295 H 0.0 **** 0.06
2241 C 108.83200381315679 79.52600851570632 82.38106574318589 C 0.0 **** -0.24
2242 H 109.73985993165745 79.37926049284678 82.96560415307154 H 0.0 **** 0.06
2243 H 108.77647874906954 80.5629352217003 82.05022763344478 H 0.0 **** 0.06
2244 H 107.96229341162247 79.2936551392546 82.99710608311611 H 0.0 **** 0.06
2245 H 108.84746744363169 78.86766170546403 81.51275978978761 H 0.0 **** 0.06
2246 C 3.6612916735808625 8.610594196115358 56.2190554796552 C 0.0 **** -0.24
2247 H 3.768762941519565 7.656771411879447 56.73598094660048 H 0.0 **** 0.06
2248 H 4.638232814704107 9.087356617210702 56.13150804745169 H 0.0 **** 0.06
2249 H 2.990369166963074 9.256714586464767 56.78356610678932 H 0.0 **** 0.06
2250 H 3.249235855106406 8.439280365801267 55.22380147244999 H 0.0 **** 0.06
2251 C 131.15594847381485 8.183622958054343 134.10487262323215 C 0.0 **** -0.24
2252 H 131.77537732761996 8.964732329741707 134.54425160255613 H 0.0 **** 0.06
2253 H 131.28935565932088 8.180411609537828 133.02286794407465 H 0.0 **** 0.06
2254 H 130.10948545780624 8.372727793913555 134.34220650830324 H 0.0 **** 0.06
2255 H 131.4516042812933 7.215442237467528 134.50945963312222 H 0.0 **** 0.06
2256 C 27.99465912105336 6.534263002583998 73.04384653874328 C 0.0 **** -0.24
2257 H 28.054928547978562 6.460334592338739 74.13038238753538 H 0.0 **** 0.06
2258 H 27.783339161392064 5.550622143811665 72.62483768719093 H 0.0 **** 0.06
2259 H 28.943071047274998 6.900850519566575 72.65190613482869 H 0.0 **** 0.06
2260 H 27.197179655991278 7.224992987253671 72.7712470954703 H 0.0 **** 0.06
2261 C 2.867209525616488 16.93700283573793 106.94783124039547 C 0.0 **** -0.24
2262 H 3.329626760957069 16.73827747759009 107.9143194188775 H 0.0 **** 0.06
2263 H 3.1992470152202372 17.90723732365001 106.57876210341094 H 0.0 **** 0.06
2264 H 1.7827565466666329 16.941590157737437 107.05832828389565 H 0.0 **** 0.06
2265 H 3.1565848509711145 16.16014527161002 106.24009601873512 H 0.0 **** 0.06
2266 C 20.26999346018775 52.058345475311384 116.90983158580144 C 0.0 **** -0.24
2267 H 19.723325392627004 52.714172699919104 117.58691248262977 H 0.0 **** 0.06
2268 H 19.57341399969644 51.59814367502955 116.20920312125088 H 0.0 **** 0.06
2269 H 20.77321386422659 51.28147659252373 117.4851661368603 H 0.0 **** 0.06
2270 H 21.00999551442112 52.638676079197 116.3584521705099 H 0.0 **** 0.06
2271 C 46.39428154913321 48.64797543092081 72.35913296652875 C 0.0 **** -0.24
2272 H 45.593215629225185 48.68799589217281 73.09748631506604 H 0.0 **** 0.06
2273 H 47.027260329962616 47.78198389457543 72.55834770990269 H 0.0 **** 0.06
2274 H 46.991656626897424 49.55716627615155 72.42168605651015 H 0.0 **** 0.06
2275 H 45.96462237327873 48.562795177768265 71.36125211551553 H 0.0 **** 0.06
2276 C 105.36524898845069 34.28492799664576 41.09198198488795 C 0.0 **** -0.24
2277 H 105.28926573340452 33.47094579513589 41.813043996342714 H 0.0 **** 0.06
2278 H 104.47848237690503 34.91566690923901 41.16120145799522 H 0.0 **** 0.06
2279 H 105.44084907667 33.87255071515045 40.08545452166035 H 0.0 **** 0.06
2280 H 106.25242035937377 34.87987696029114 41.30748734098128 H 0.0 **** 0.06
2281 C 101.61171982648122 8.144550795142546 46.97442096515877 C 0.0 **** -0.24
2282 H 102.20951056004813 7.743683496705309 46.15650624001147 H 0.0 **** 0.06
2283 H 101.38067985957767 7.346832205245196 47.680037334560424 H 0.0 **** 0.06
2284 H 100.68417001924777 8.558142473365539 46.57781511363548 H 0.0 **** 0.06
2285 H 102.17082605088726 8.929624592141078 47.482967163478094 H 0.0 **** 0.06
2286 C 56.531988927687266 92.16304736999686 69.32567175610431 C 0.0 **** -0.24
2287 H 56.87022734447174 91.13136556115158 69.4212714779293 H 0.0 **** 0.06
2288 H 55.46066760514077 92.21341551972264 69.52475879330572 H 0.0 **** 0.06
2289 H 56.73070969124264 92.51850804272904 68.31491578304775 H 0.0 **** 0.06
2290 H 57.064465587719994 92.7875851040828 70.04258674223559 H 0.0 **** 0.06
2291 C 1.0644065062875256 21.696076011371986 139.55125910726676 C 0.0 **** -0.24
2292 H 1.4167154089187193 20.95114858888705 140.26575650529819 H 0.0 **** 0.06
2293 H 0.328146138665943 22.34012637587776 140.03353885532286 H 0.0 **** 0.06
2294 H 0.6055576199343022 21.19323302708699 138.7002605721484 H 0.0 **** 0.06
2295 H 1.9058740424751477 22.297542437656517 139.20815359007187 H 0.0 **** 0.06
2296 C 52.92788446375573 123.03237145384942 137.19447379936628 C 0.0 **** -0.24
2297 H 52.16043528498106 123.80673251890491 137.21517733501423 H 0.0 **** 0.06
2298 H 53.90864145899506 123.49518890637486 137.0901446623133 H 0.0 **** 0.06
2299 H 52.748293302817686 122.36686065690678 136.34965705938808 H 0.0 **** 0.06
2300 H 52.891854768365675 122.46092071331101 138.1221395917692 H 0.0 **** 0.06
2301 C 109.5275615668963 86.24607567476323 109.02345887068242 C 0.0 **** -0.24
2302 H 109.61389405749436 87.28820771884102 108.71513206338824 H 0.0 **** 0.06
2303 H 109.866893949485 86.1440682296822 110.0549340145613 H 0.0 **** 0.06
2304 H 110.14249855965038 85.62243678689094 108.37432718615116 H 0.0 **** 0.06
2305 H 108.48606657435614 85.93080735941845 108.95109160966945 H 0.0 **** 0.06
2306 C 133.92974249921105 29.687833621552997 119.85192535567788 C 0.0 **** -0.24
2307 H 134.63253276349974 28.863121348152276 119.73568257528612 H 0.0 **** 0.06
2308 H 134.073421000888 30.405048619398315 119.04440136889602 H 0.0 **** 0.06
2309 H 134.10205357519504 30.17813647791609 120.80969665848735 H 0.0 **** 0.06
2310 H 132.90994009214103 29.30229793293475 119.81950238648639 H 0.0 **** 0.06
2311 C 120.71780727026416 99.84467199856218 68.81374641389408 C 0.0 **** -0.24
2312 H 120.84088477704077 100.76212947473809 68.23771375091115 H 0.0 **** 0.06
2313 H 119.6732906894936 99.53328344500389 68.78180558186202 H 0.0 **** 0.06
2314 H 121.01377762976276 100.02242208200738 69.84719080580857 H 0.0 **** 0.06
2315 H 121.34367181592697 99.06114234737089 68.38531578988139 H 0.0 **** 0.06
2316 C 76.09727966498802 3.329959030040314 112.79374437981296 C 0.0 **** -0.24
2317 H 75.11362510298788 3.436589136304743 112.3377503381988 H 0.0 **** 0.06
2318 H 76.86072154233236 3.6676332111403624 112.09306290331445 H 0.0 **** 0.06
2319 H 76.27078456285446 2.283266799875687 113.04415670790054 H 0.0 **** 0.06
2320 H 76.14390452234454 3.933584838827411 113.70068646443276 H 0.0 **** 0.06
2321 C 112.269493574747 106.2938925531708 47.55750436498272 C 0.0 **** -0.24
2322 H 112.61135211670228 107.17728992549745 48.09532463856587 H 0.0 **** 0.06
2323 H 111.1808365542301 106.24173016160204 47.59900061984027 H 0.0 **** 0.06
2324 H 112.69401142851939 105.40147489876075 48.017892504813574 H 0.0 **** 0.06
2325 H 112.59134939452167 106.35419315170732 46.517595912826096 H 0.0 **** 0.06
2326 C 84.45339813387662 29.480199988005182 27.85340894441353 C 0.0 **** -0.24
2327 H 83.63023191432521 29.25063906620155 27.176719163722595 H 0.0 **** 0.06
2328 H 84.25419064823089 30.423584027108504 28.3611380061935 H 0.0 **** 0.06
2329 H 85.37921549853033 29.561805549939294 27.28360314213728 H 0.0 **** 0.06
2330 H 84.55041433378946 28.68301947859937 28.590864039347224 H 0.0 **** 0.06
2331 C 126.49701337345309 49.250856540546096 18.78394776538351 C 0.0 **** -0.24
2332 H 126.72100669760144 48.50312323505241 18.023084574735236 H 0.0 **** 0.06
2333 H 127.08263986184099 49.04317172783911 19.679904551659128 H 0.0 **** 0.06
2334 H 125.43546183230407 49.216586942442234 19.02716942999603 H 0.0 **** 0.06
2335 H 126.750995814672 50.24074402630404 18.40476366201454 H 0.0 **** 0.06
2336 C 89.71778571917795 95.79292656402183 13.071777977102471 C 0.0 **** -0.24
2337 H 89.8037287540169 96.8794010486958 13.061343541034432 H 0.0 **** 0.06
2338 H 88.66497556803769 95.51201673815788 13.074483146094536 H 0.0 **** 0.06
2339 H 90.20179455053452 95.39875347058043 13.966361678754907 H 0.0 **** 0.06
2340 H 90.20201245957429 95.38146835726923 12.186380616076434 H 0.0 **** 0.06
2341 C 71.98536713098353 86.87199098927397 59.07055373267808 C 0.0 **** -0.24
2342 H 71.03054364096712 86.41415779914436 59.3310413816026 H 0.0 **** 0.06
2343 H 72.49369400479024 86.25380554491319 58.32952572326752 H 0.0 **** 0.06
2344 H 72.60490335699025 86.95298657755714 59.963785775413214 H 0.0 **** 0.06
2345 H 71.81080860065381 87.86545542300041 58.657348410514615 H 0.0 **** 0.06
2346 C 48.490988984328595 47.170369617771854 133.9916344339927 C 0.0 **** -0.24
2347 H 49.574670392413054 47.184803057076664 134.10969033545908 H 0.0 **** 0.06
2348 H 48.112355775218816 46.17765851877098 134.23660074968942 H 0.0 **** 0.06
2349 H 48.23502592516277 47.41458475110963 132.96109101567762 H 0.0 **** 0.06
2350 H 48.04383927972313 47.905441279579776 134.66144390371247 H 0.0 **** 0.06
2351 C 5.864974150973492 54.5580678263689 82.74277597972339 C 0.0 **** -0.24
2352 H 6.114104977610577 53.8552437381597 83.53815579647713 H 0.0 **** 0.06
2353 H 6.7272897958006475 55.19333924700538 82.5382377530354 H 0.0 **** 0.06
2354 H 5.023523201003588 55.17568235063244 83.05433083363744 H 0.0 **** 0.06
2355 H 5.597671038199092 54.00577172671032 81.84170607454558 H 0.0 **** 0.06
2356 C 138.61804770594577 85.60630255968034 46.87142646352049 C 0.0 **** -0.24
2357 H 138.36379211066907 85.14810388049185 45.915225127770384 H 0.0 **** 0.06
2358 H 138.74974063140553 86.67999617183037 46.73445590889247 H 0.0 **** 0.06
2359 H 139.5437384164935 85.17163892121354 47.24790634757352 H 0.0 **** 0.06
2360 H 137.8145177009869 85.42587879853536 47.58534850761049 H 0.0 **** 0.06
2361 C 118.49460141480859 48.35461165823344 22.52035523790824 C 0.0 **** -0.24
2362 H 117.59156804506694 47.795852735719706 22.273776421611423 H 0.0 **** 0.06
2363 H 119.2611988802023 48.15455573398134 21.77143944155611 H 0.0 **** 0.06
2364 H 118.85556594487247 48.046870987922716 23.501774204412122 H 0.0 **** 0.06
2365 H 118.26892865409849 49.42091772493501 22.535223863870208 H 0.0 **** 0.06
2366 C 127.43551545754164 112.64528977442957 59.420793140178844 C 0.0 **** -0.24
2367 H 127.88987625271406 111.74862078323723 59.841591024515495 H 0.0 **** 0.06
2368 H 127.27004202643876 113.37504063712517 60.214783200614534 H 0.0 **** 0.06
2369 H 126.4823901768166 112.38841906040524 58.96014309124827 H 0.0 **** 0.06
2370 H 128.10066699992092 113.0708167772293 58.668923388957296 H 0.0 **** 0.06
2371 C 7.413850907960892 36.1145244136824 59.81254004793962 C 0.0 **** -0.24
2372 H 6.567905623126933 36.547176894502456 59.277053011763826 H 0.0 **** 0.06
2373 H 7.152731542734273 35.99022128170756 60.8640182239578 H 0.0 **** 0.06
2374 H 8.27441871394089 36.777364801071144 59.727360656517874 H 0.0 **** 0.06
2375 H 7.658324910562811 35.14353899764399 59.380797394572255 H 0.0 **** 0.06
2376 C 0.7665151037227247 127.89614602219012 36.58918406230535 C 0.0 **** -0.24
2377 H 0.07531188456323434 127.0533350736562 36.61062539890216 H 0.0 **** 0.06
2378 H 0.29260892834449237 128.76536038442046 37.04627515538809 H 0.0 **** 0.06
2379 H 1.0267474614932155 128.12472276524505 35.55581497210156 H 0.0 **** 0.06
2380 H 1.668811601354406 127.63971051743331 37.143548310837105 H 0.0 **** 0.06
2381 C 14.520529359944085 67.34465267423298 52.252310906732575 C 0.0 **** -0.24
2382 H 14.368725663508584 66.96041773693953 51.24427718169696 H 0.0 **** 0.06
2383 H 14.343497094851855 66.54889777872712 52.975406053013586 H 0.0 **** 0.06
2384 H 13.825208675543962 68.16451786661814 52.437468106284484 H 0.0 **** 0.06
2385 H 15.543387022126318 67.70671475871362 52.35284009193258 H 0.0 **** 0.06
2386 C 98.03089481176973 128.82853131454178 8.85104240714173 C 0.0 **** -0.24
2387 H 98.73169045454621 128.3252261607947 9.517214525036742 H 0.0 **** 0.06
2388 H 97.38341455251704 128.08955177953627 8.378605665030435 H 0.0 **** 0.06
2389 H 98.58456175775856 129.37099754632095 8.084744036037222 H 0.0 **** 0.06
2390 H 97.42450295934333 129.52884047729594 9.424793102766138 H 0.0 **** 0.06
2391 C 125.45964586648785 110.0659114236843 91.00940458201872 C 0.0 **** -0.24
2392 H 124.48579543815531 110.54451578707173 90.89915410125174 H 0.0 **** 0.06
2393 H 125.8787197223308 109.86473904634883 90.02380392853878 H 0.0 **** 0.06
2394 H 125.34344129989412 109.12806701234646 91.553780657881 H 0.0 **** 0.06
2395 H 126.12747455955429 110.72669215235518 91.56184240581156 H 0.0 **** 0.06
2396 C 1.7044561237317453 126.81941370222577 52.145897043448855 C 0.0 **** -0.24
2397 H 1.5188330758054462 127.61428672865972 51.422375844836296 H 0.0 **** 0.06
2398 H 1.131296655618712 125.93502402531604 51.86707087367287 H 0.0 **** 0.06
2399 H 1.3994270967399984 127.15261195058147 53.13778922921091 H 0.0 **** 0.06
2400 H 2.766549943664529 126.57720605910541 52.15438314561362 H 0.0 **** 0.06
2401 C 4.666224514490768 127.80104607905557 125.0605637494908 C 0.0 **** -0.24
2402 H 3.7358964159253603 127.38575401269858 125.44920762919455 H 0.0 **** 0.06
2403 H 5.510848960343477 127.34428571719332 125.57670367977815 H 0.0 **** 0.06
2404 H 4.6789670391617015 128.87865636956923 125.22427260946435 H 0.0 **** 0.06
2405 H 4.737727320179651 127.59482375176623 123.992728280585 H 0.0 **** 0.06
2406 C 0.4465372396495866 82.21631079187046 72.72455462272556 C 0.0 **** -0.24
2407 H -0.044651846599094824 83.18104670959548 72.84717492958401 H 0.0 **** 0.06
2408 H 1.4484931384832862 82.2611937878267 73.15175341035741 H 0.0 **** 0.06
2409 H 0.5145534751948446 81.97661208359565 71.66287516672858 H 0.0 **** 0.06
2410 H -0.13273336409750414 81.4467050215332 73.23403513503533 H 0.0 **** 0.06
2411 C 85.64854160097512 139.41681186449767 55.12454155951973 C 0.0 **** -0.24
2412 H 86.58305043159523 139.212603307515 54.60202648413264 H 0.0 **** 0.06
2413 H 84.84774971017828 138.82430682421506 54.68117595838811 H 0.0 **** 0.06
2414 H 85.40882547803993 140.4766948832362 55.03777132261055 H 0.0 **** 0.06
2415 H 85.75583375407646 139.15307028090166 56.177223237791296 H 0.0 **** 0.06
2416 C 97.7498770056543 145.37329276536647 133.31559898604104 C 0.0 **** -0.24
2417 H 97.4085502202314 144.60129512621913 132.6256442154553 H 0.0 **** 0.06
2418 H 98.83934110307246 145.36505571740216 133.35970187376336 H 0.0 **** 0.06
2419 H 97.34420304978357 145.17838041407376 134.30853590751158 H 0.0 **** 0.06
2420 H 97.40719583133767 146.34762131051664 132.96798228239865 H 0.0 **** 0.06
2421 C 35.658059686671805 83.01076071935992 139.25082448421958 C 0.0 **** -0.24
2422 H 36.46613011313272 83.52150594295625 139.77546382871822 H 0.0 **** 0.06
2423 H 35.22319062030694 82.25310220117146 139.90288764980284 H 0.0 **** 0.06
2424 H 36.05281841984686 82.53401275964168 138.35330242507104 H 0.0 **** 0.06
2425 H 34.89224558790701 83.73408691736185 138.9711123724371 H 0.0 **** 0.06
2426 C 53.05325670019073 24.058276469611783 137.3537152104524 C 0.0 **** -0.24
2427 H 52.15864918275521 24.0237933529938 137.97469279309348 H 0.0 **** 0.06
2428 H 53.643270078536545 23.15566861692178 137.51746575496693 H 0.0 **** 0.06
2429 H 53.64714642282354 24.932653660952326 137.61940941308325 H 0.0 **** 0.06
2430 H 52.76580286309712 24.11887697146149 136.30436172452855 H 0.0 **** 0.06
2431 C 15.586311541015448 94.34252375807564 106.25996824587828 C 0.0 **** -0.24
2432 H 15.238367738403205 94.73928585672707 105.3069972180949 H 0.0 **** 0.06
2433 H 15.888463585408502 95.1646353913492 106.90832808123058 H 0.0 **** 0.06
2434 H 16.438033038875062 93.68230913850708 106.08901752502167 H 0.0 **** 0.06
2435 H 14.78183620969586 93.78061967808632 106.73436590273128 H 0.0 **** 0.06
2436 C 25.23480210830661 8.069041074341044 54.790327695228456 C 0.0 **** -0.24
2437 H 24.53099460015551 7.801020871760159 54.003304828587005 H 0.0 **** 0.06
2438 H 24.716314557922118 8.092442419790473 55.74900592505283 H 0.0 **** 0.06
2439 H 25.657027528885962 9.052784646535002 54.5816167956301 H 0.0 **** 0.06
2440 H 26.036073100375035 7.33037103797497 54.82797492661949 H 0.0 **** 0.06
2441 C 144.00397471235863 80.3891844789003 5.091105703200071 C 0.0 **** -0.24
2442 H 143.30564493158536 81.13306787438935 5.474516585287915 H 0.0 **** 0.06
2443 H 143.52597674199208 79.40869406054101 5.092310847479325 H 0.0 **** 0.06
2444 H 144.88973293340024 80.36202310510096 5.7249451816411465 H 0.0 **** 0.06
2445 H 144.29245737956734 80.65126236407966 4.0735376236779075 H 0.0 **** 0.06
2446 C 4.624476557081497 55.375782332136396 5.334478032405457 C 0.0 **** -0.24
2447 H 4.215841707528504 55.789598284563056 4.412452097393839 H 0.0 **** 0.06
2448 H 5.5023697275961965 55.94973897971738 5.631883924813536 H 0.0 **** 0.06
2449 H 4.907909260547832 54.33550450282365 5.171637996349801 H 0.0 **** 0.06
2450 H 3.8716252873479284 55.42837593853534 6.12053575651035 H 0.0 **** 0.06
2451 C 111.9039837094807 53.79480699821863 133.89631441524568 C 0.0 **** -0.24
2452 H 112.88640061640966 54.10575801154829 134.25186383672394 H 0.0 **** 0.06
2453 H 111.82303646145648 52.708913595015815 133.95523812696723 H 0.0 **** 0.06
2454 H 111.77434935866746 54.11360433699048 132.86150277084258 H 0.0 **** 0.06
2455 H 111.13242646232347 54.251242648533264 134.51573735127644 H 0.0 **** 0.06
2456 C 49.106100846998785 18.078340169676693 135.76238703181798 C 0.0 **** -0.24
2457 H 49.45821470116471 18.908715250350667 136.37361114114418 H 0.0 **** 0.06
2458 H 49.95014918802683 17.628682779660835 135.23997292322753 H 0.0 **** 0.06
2459 H 48.3813934477312 18.44472714831481 135.0353404989914 H 0.0 **** 0.06
2460 H 48.63362915877214 17.332231453640674 136.4023481582275 H 0.0 **** 0.06
2461 C 122.43579501246636 70.2735327437152 29.3390424758652 C 0.0 **** -0.24
2462 H 121.92604773380607 71.08966793879503 28.826174082583833 H 0.0 **** 0.06
2463 H 122.37599185133483 70.42853528396816 30.416965827881427 H 0.0 **** 0.06
2464 H 123.48236012372836 70.2504816071863 29.032395959045772 H 0.0 **** 0.06
2465 H 121.96026158018147 69.32792647800788 29.07982516353792 H 0.0 **** 0.06
2466 C 57.055864574104874 113.8313892716874 40.064578901642136 C 0.0 **** -0.24
2467 H 56.5568655505904 114.71559785167689 40.46189500183769 H 0.0 **** 0.06
2468 H 56.813743745472365 113.72179886686833 39.00748460925385 H 0.0 **** 0.06
2469 H 56.719593660708924 112.94921970540675 40.60838454572243 H 0.0 **** 0.06
2470 H 58.134155856192635 113.94158150150399 40.1810155513995 H 0.0 **** 0.06
2471 C 105.3832173197711 31.671157115681815 128.80961924491464 C 0.0 **** -0.24
2472 H 104.32868556899983 31.802882339105295 129.05344742378978 H 0.0 **** 0.06
2473 H 105.93558111495535 32.56727357104958 129.0930596242247 H 0.0 **** 0.06
2474 H 105.4892494806776 31.50047122073093 127.73863821293877 H 0.0 **** 0.06
2475 H 105.77732832888127 30.813612479578467 129.35526805203588 H 0.0 **** 0.06
2476 C 81.75829741873179 32.354840819611155 95.62816240534701 C 0.0 **** -0.24
2477 H 81.81941936510921 33.345679201713494 96.07790042879216 H 0.0 **** 0.06
2478 H 80.72575209116668 32.14598987407476 95.34876069853544 H 0.0 **** 0.06
2479 H 82.09961393936 31.609178587323086 96.3458703843835 H 0.0 **** 0.06
2480 H 82.3900720487817 32.31996866066761 94.74044586353743 H 0.0 **** 0.06
2481 C 81.20895275942871 89.78146119413265 118.22451378534603 C 0.0 **** -0.24
2482 H 80.50491477975636 90.3072495176746 117.57979443197897 H 0.0 **** 0.06
2483 H 81.24655887153996 88.72923451232187 117.93941246230426 H 0.0 **** 0.06
2484 H 80.8852936608778 89.86544750586019 119.26200498430686 H 0.0 **** 0.06
2485 H 82.19931007383967 90.22348257212847 118.11598092476905 H 0.0 **** 0.06
2486 C 103.65821312693593 91.7670506900869 87.44834630827971 C 0.0 **** -0.24
2487 H 103.26303103571834 91.87401755162134 88.4590698849817 H 0.0 **** 0.06
2488 H 104.69320260101914 91.42709080699493 87.49800527147856 H 0.0 **** 0.06
2489 H 103.61425107404368 92.72912360309053 86.9374833504606 H 0.0 **** 0.06
2490 H 103.06133602010935 91.03743919296201 86.9009838293526 H 0.0 **** 0.06
2491 C 92.4955840225872 115.20334549786806 86.3139324450711 C 0.0 **** -0.24
2492 H 93.20968593420798 115.25218535415867 87.13642807198158 H 0.0 **** 0.06
2493 H 91.77842642594726 114.40453721078002 86.50379611725747 H 0.0 **** 0.06
2494 H 93.02684065532719 115.00150063593092 85.38342829712688 H 0.0 **** 0.06
2495 H 91.96889997710537 116.15408478576775 86.23367284501582 H 0.0 **** 0.06
2496 C 51.596029494567745 31.76984687397291 86.6796585760743 C 0.0 **** -0.24
2497 H 52.319538780897574 32.51501611200335 87.00895779481004 H 0.0 **** 0.06
2498 H 50.74188917864052 31.7681904345856 87.3576604368742 H 0.0 **** 0.06
2499 H 52.06338973519166 30.785227527806697 86.67946814916684 H 0.0 **** 0.06
2500 H 51.25863528954153 32.01251492896818 85.67148978729091 H 0.0 **** 0.06
2501 C 107.91386935133082 49.90846698763127 101.17089662044248 C 0.0 **** -0.24
2502 H 107.32372639100808 49.0065247432307 101.00672476661194 H 0.0 **** 0.06
2503 H 107.72635425196856 50.2862617363574 102.17635479652748 H 0.0 **** 0.06
2504 H 107.63116611094031 50.66565526481247 100.43964175226057 H 0.0 **** 0.06
2505 H 108.97216094266415 49.67546228011051 101.06171087483128 H 0.0 **** 0.06
2506 C 139.44825708745327 35.725160990744484 107.85621463182265 C 0.0 **** -0.24
2507 H 139.54762947543816 35.916768325558905 108.92488515067986 H 0.0 **** 0.06
2508 H 139.3004574540516 34.65778310232389 107.69121275421882 H 0.0 **** 0.06
2509 H 140.3535800909347 36.051079222521935 107.34351151309134 H 0.0 **** 0.06
2510 H 138.59201932670294 36.275880417309054 107.4680447419748 H 0.0 **** 0.06
2511 C 95.19085224174748 62.9692096698831 82.8248973903031 C 0.0 **** -0.24
2512 H 94.87821165823827 61.92885376156249 82.91407330145438 H 0.0 **** 0.06
2513 H 96.27828532871347 63.02691118571093 82.87398628223914 H 0.0 **** 0.06
2514 H 94.75865606087851 63.548844724145084 83.64007744771573 H 0.0 **** 0.06
2515 H 94.84789755746512 63.37086277132485 81.87138138701853 H 0.0 **** 0.06
2516 C 135.6020488155722 118.40776720789864 22.08277757491541 C 0.0 **** -0.24
2517 H 135.97442963616191 118.63121097996714 23.082307105251843 H 0.0 **** 0.06
2518 H 134.5140132973911 118.34265837564243 22.10619700464585 H 0.0 **** 0.06
2519 H 136.01630513166126 117.45794973429616 21.744073597344496 H 0.0 **** 0.06
2520 H 135.9034147448861 119.20091368982105 21.397039126022378 H 0.0 **** 0.06
2521 C 121.51448091788211 112.44241569224748 89.1118949168208 C 0.0 **** -0.24
2522 H 121.1133259069158 113.3224239727244 89.61447423611703 H 0.0 **** 0.06
2523 H 121.10620079389287 112.38295925188577 88.1026000126965 H 0.0 **** 0.06
2524 H 121.23741776409787 111.54758191556031 89.66969455869057 H 0.0 **** 0.06
2525 H 122.60070389213718 112.5173959319355 89.06147163082473 H 0.0 **** 0.06
2526 C 144.36534595143414 23.103423160786605 89.2094178830615 C 0.0 **** -0.24
2527 H 144.4947920723738 23.627607546881507 88.26306790342572 H 0.0 **** 0.06
2528 H 143.67943936458002 23.664680296174993 89.84446788699344 H 0.0 **** 0.06
2529 H 145.32968736944565 23.010824359625076 89.70855110050753 H 0.0 **** 0.06
2530 H 143.9569072109733 22.11070594944823 89.02076417601337 H 0.0 **** 0.06
2531 C 112.12174658500548 132.5178981331209 4.606623322165287 C 0.0 **** -0.24
2532 H 111.11165741188263 132.12204336083474 4.704448115806134 H 0.0 **** 0.06
2533 H 112.8413679981327 131.70357688561185 4.69499104124316 H 0.0 **** 0.06
2534 H 112.30274172245358 133.25004032284014 5.393999661086976 H 0.0 **** 0.06
2535 H 112.231219207553 132.99593196319685 3.6330544705250247 H 0.0 **** 0.06
2536 C 54.63266721640716 74.1730829921261 52.69014558666612 C 0.0 **** -0.24
2537 H 55.605068915203816 73.75496706133039 52.94994337599729 H 0.0 **** 0.06
2538 H 53.86658150004871 73.73364897231134 53.33024509796917 H 0.0 **** 0.06
2539 H 54.40814115402654 73.94918964514584 51.6473609944247 H 0.0 **** 0.06
2540 H 54.6518092500491 75.25340274424411 52.8347267868553 H 0.0 **** 0.06
2541 C 133.01953871624787 116.09095859632941 8.132342022765705 C 0.0 **** -0.24
2542 H 133.87584787757183 115.41790053034117 8.075902535900294 H 0.0 **** 0.06
2543 H 133.37024551583275 117.11605886116075 8.247611450500212 H 0.0 **** 0.06
2544 H 132.400504184435 115.81874786141088 8.987682011234497 H 0.0 **** 0.06
2545 H 132.43212845422042 116.00784424794244 7.217225012666528 H 0.0 **** 0.06
2546 C 110.49970985529541 30.881318452504125 128.67452260803046 C 0.0 **** -0.24
2547 H 111.36502498529285 30.23239999700506 128.53942093886255 H 0.0 **** 0.06
2548 H 110.77419293690463 31.72385561932289 129.309886355477 H 0.0 **** 0.06
2549 H 109.69374007528978 30.318562014653992 129.1456306711665 H 0.0 **** 0.06
2550 H 110.16730495024785 31.250373389836163 127.70455492617955 H 0.0 **** 0.06
2551 C 77.42630557214045 38.36425108034419 33.99643845985684 C 0.0 **** -0.24
2552 H 76.70313861074908 39.147123651162985 33.76632976566593 H 0.0 **** 0.06
2553 H 77.00747351593503 37.69229602035483 34.746660477409655 H 0.0 **** 0.06
2554 H 78.33962766711278 38.81709607542973 34.383280923069414 H 0.0 **** 0.06
2555 H 77.65409979898988 37.8021294959064 33.09107279496544 H 0.0 **** 0.06
2556 C 107.2988362500953 15.302177659898831 104.74999977482308 C 0.0 **** -0.24
2557 H 108.10667817737671 14.759991227909438 105.2418231229393 H 0.0 **** 0.06
2558 H 107.2555271458129 15.013177975405597 103.699114208957 H 0.0 **** 0.06
2559 H 107.48186769521239 16.37340326153563 104.82491327764268 H 0.0 **** 0.06
2560 H 106.3525862115621 15.06013690350892 105.23264248062269 H 0.0 **** 0.06
2561 C 63.52046417048459 20.09849687377389 67.92197236761584 C 0.0 **** -0.24
2562 H 62.624688933449676 20.63867664727173 67.61481043434054 H 0.0 **** 0.06
2563 H 64.31708915588078 20.276968871836146 67.19876193082061 H 0.0 **** 0.06
2564 H 63.3032880233321 19.032509352686468 67.96877959847988 H 0.0 **** 0.06
2565 H 63.83632268045895 20.448731266173674 68.90492159880091 H 0.0 **** 0.06
2566 C 46.30441034064074 76.69437956547117 97.0958915526601 C 0.0 **** -0.24
2567 H 46.32778172183646 76.23843628946261 96.10607116127802 H 0.0 **** 0.06
2568 H 46.994339190602915 76.16710222509815 97.75550259619544 H 0.0 **** 0.06
2569 H 45.29370652450976 76.63164899352876 97.5004723397448 H 0.0 **** 0.06
2570 H 46.6008228575532 77.7412125529668 97.0210299076658 H 0.0 **** 0.06
2571 C 134.33984209671107 102.9772471059911 52.399662551140295 C 0.0 **** -0.24
2572 H 134.02918185808178 103.71493637365504 51.6601967771973 H 0.0 **** 0.06
2573 H 134.24546648185319 101.97693538198243 51.976874658327006 H 0.0 **** 0.06
2574 H 133.70737715783716 103.05961812886707 53.28348606579452 H 0.0 **** 0.06
2575 H 135.37823041186905 103.1576815310639 52.67766978358071 H 0.0 **** 0.06
2576 C 22.85037002660932 94.09841928875554 10.623750151425355 C 0.0 **** -0.24
2577 H 23.06267506955316 93.6219452198918 9.666620624642917 H 0.0 **** 0.06
2578 H 21.821521049693004 94.45889852846007 10.630262832604075 H 0.0 **** 0.06
2579 H 23.530971865476033 94.93729832914669 10.769571937357341 H 0.0 **** 0.06
2580 H 22.988487038674542 93.37520098687922 11.427468929650104 H 0.0 **** 0.06
2581 C 134.58790261864124 143.63268017135692 82.70100972638406 C 0.0 **** -0.24
2582 H 135.18251807411787 143.37279655447543 81.82523529105427 H 0.0 **** 0.06
2583 H 134.60269009564792 144.71487311665533 82.84185642074942 H 0.0 **** 0.06
2584 H 135.00527048659848 143.14523275406273 83.58190356805278 H 0.0 **** 0.06
2585 H 133.5606537392091 143.29962331626248 82.55381340959195 H 0.0 **** 0.06
2586 C 124.52063177642637 1.4449381526073353 65.06996824931493 C 0.0 **** -0.24
2587 H 125.28499923020254 0.896734678672999 64.5217866003554 H 0.0 **** 0.06
2588 H 123.69261768327695 1.682938666524592 64.40078785615367 H 0.0 **** 0.06
2589 H 124.9469609813763 2.3684725922034886 65.46238316843967 H 0.0 **** 0.06
2590 H 124.15601850691289 0.8338005420436048 65.89559339457429 H 0.0 **** 0.06
2591 C 107.5379177379477 50.84715312798505 49.37158488178338 C 0.0 **** -0.24
2592 H 107.65459998129892 50.67844678987575 50.4423347792567 H 0.0 **** 0.06
2593 H 108.5071588697143 50.75380730908432 48.88146337205049 H 0.0 **** 0.06
2594 H 107.13930300645107 51.847873073248195 49.203362390465514 H 0.0 **** 0.06
2595 H 106.84995739881789 50.10840653117015 48.95993338966636 H 0.0 **** 0.06
2596 C 137.22357967947352 75.47523874360058 48.65205128241777 C 0.0 **** -0.24
2597 H 137.54530478844177 74.43347363494837 48.64546792156224 H 0.0 **** 0.06
2598 H 136.13580010607265 75.51860403696332 48.59414649224132 H 0.0 **** 0.06
2599 H 137.65444803844682 75.9933316500821 47.795244362766454 H 0.0 **** 0.06
2600 H 137.55816085067727 75.95303536665426 49.572191853453916 H 0.0 **** 0.06
2601 C 80.48397965018012 37.59860380700866 47.146400377679214 C 0.0 **** -0.24
2602 H 79.78637312965503 36.790068072078384 47.36492956549043 H 0.0 **** 0.06
2603 H 81.48290861095865 37.18615564600293 46.99809520692688 H 0.0 **** 0.06
2604 H 80.50088957854058 38.29930926633608 47.980689761244946 H 0.0 **** 0.06
2605 H 80.16790448769098 38.11686560697933 46.241357796985966 H 0.0 **** 0.06
2606 C 61.109684786989305 116.61739588687962 73.13319668842922 C 0.0 **** -0.24
2607 H 61.45831282312406 117.64095451927543 72.99265433675538 H 0.0 **** 0.06
2608 H 61.92093987956309 116.01015461152198 73.53677961290566 H 0.0 **** 0.06
2609 H 60.79119721385575 116.20733732341316 72.1754328950422 H 0.0 **** 0.06
2610 H 60.27107191880168 116.61101907556022 73.828412932515 H 0.0 **** 0.06
2611 C 101.1308622096917 40.52725994875559 82.3187460128579 C 0.0 **** -0.24
2612 H 100.63145978403897 39.6287946853354 82.68070632102513 H 0.0 **** 0.06
2613 H 102.04281023612329 40.24757618859547 81.78969803734594 H 0.0 **** 0.06
2614 H 101.38254965056935 41.16813068771979 83.16356552640468 H 0.0 **** 0.06
2615 H 100.46678215749047 41.06372499712864 81.64045266445532 H 0.0 **** 0.06
2616 C 85.96714626497851 68.53938411861522 97.27865770265834 C 0.0 **** -0.24
2617 H 85.40362598721501 68.02496650742286 96.50047694043317 H 0.0 **** 0.06
2618 H 86.74265133842891 69.1529744225207 96.81939008119718 H 0.0 **** 0.06
2619 H 86.42762749021284 67.80488322383677 97.93868295397911 H 0.0 **** 0.06
2620 H 85.29428170272811 69.17414068513212 97.85395607244452 H 0.0 **** 0.06
2621 C 89.12554156610798 116.34148124773043 135.42570642712002 C 0.0 **** -0.24
2622 H 88.5284063566861 115.43842418634836 135.55580032203105 H 0.0 **** 0.06
2623 H 90.10406532862308 116.19814119717859 135.8826339019904 H 0.0 **** 0.06
2624 H 88.6211685128034 117.18207373499399 135.9029600479126 H 0.0 **** 0.06
2625 H 89.24650606942024 116.54674574634231 134.36222396085338 H 0.0 **** 0.06
2626 C 89.1232781007104 57.614782411989154 111.56500835014447 C 0.0 **** -0.24
2627 H 88.41141617615814 56.89821706146883 111.9739393543556 H 0.0 **** 0.06
2628 H 89.11836148494513 58.519921787907165 112.17248793296699 H 0.0 **** 0.06
2629 H 88.84171421063802 57.86246384687084 110.54115356844198 H 0.0 **** 0.06
2630 H 90.12215050422273 57.178572266274 111.57160571616396 H 0.0 **** 0.06
2631 C 101.99439491561877 118.30754493729394 119.50067798121394 C 0.0 **** -0.24
2632 H 101.02003721226953 118.51431798987038 119.94373766272894 H 0.0 **** 0.06
2633 H 102.56856079613944 117.66576655171447 120.16884557780595 H 0.0 **** 0.06
2634 H 102.52947768794432 119.24559771109169 119.34774536815733 H 0.0 **** 0.06
2635 H 101.85837650246584 117.80613543858409 118.54216849959177 H 0.0 **** 0.06
2636 C 77.30516380424092 130.11833604482445 124.48078147273426 C 0.0 **** -0.24
2637 H 77.84236581449602 129.86133064622243 123.5676483297197 H 0.0 **** 0.06
2638 H 77.80625973384099 130.95087234680386 124.97479673438912 H 0.0 **** 0.06
2639 H 77.28888710637159 129.2556774400863 125.14724761583182 H 0.0 **** 0.06
2640 H 76.28273474274056 130.4044350315712 124.2321007093895 H 0.0 **** 0.06
2641 C 126.54827631561895 18.89355743763395 69.21383260904241 C 0.0 **** -0.24
2642 H 125.47661972432849 18.7148566978765 69.13652791205854 H 0.0 **** 0.06
2643 H 127.06898033942831 18.31894668306296 68.44747256359166 H 0.0 **** 0.06
2644 H 126.89692267503344 18.584821188663994 70.20002711319111 H 0.0 **** 0.06
2645 H 126.75057613164135 19.955770080270042 69.07353286655706 H 0.0 **** 0.06
2646 C 42.28004529199055 27.88780897325887 108.20068843466929 C 0.0 **** -0.24
2647 H 42.409505089606 27.83270775090233 109.28167729797481 H 0.0 **** 0.06
2648 H 43.24285511495718 28.084672344803153 107.72910073723149 H 0.0 **** 0.06
2649 H 41.58520110569076 28.692299794325493 107.95960136840942 H 0.0 **** 0.06
2650 H 41.88144354508594 26.941743588151837 107.83426677233585 H 0.0 **** 0.06
2651 C 93.21187000161807 143.61211014767574 140.76080655181502 C 0.0 **** -0.24
2652 H 93.87117070486407 143.7658422880379 141.6143028024264 H 0.0 **** 0.06
2653 H 92.84245183974387 144.5756247074483 140.40872440042344 H 0.0 **** 0.06
2654 H 92.36996888773488 142.98809845346773 141.06006196214636 H 0.0 **** 0.06
2655 H 93.76263764814072 143.11937267868848 139.95970376576057 H 0.0 **** 0.06
2656 C 20.716194644470278 30.446086728194935 81.45293889379955 C 0.0 **** -0.24
2657 H 20.43145547507504 31.45133769354775 81.76443692243367 H 0.0 **** 0.06
2658 H 21.146759341136658 30.4852522174834 80.45204727672318 H 0.0 **** 0.06
2659 H 19.834802984788922 29.805796336703253 81.4445842304431 H 0.0 **** 0.06
2660 H 21.4514793126057 30.0448832438054 82.1500709440151 H 0.0 **** 0.06
2661 C 122.82621552630238 71.61621837562004 99.59282462512813 C 0.0 **** -0.24
2662 H 123.48490925020198 71.18360798012989 100.34604154720417 H 0.0 **** 0.06
2663 H 123.4186167563139 72.18519315703993 98.87628755213414 H 0.0 **** 0.06
2664 H 122.10597124054438 72.27659766014547 100.07562713051799 H 0.0 **** 0.06
2665 H 122.29536722142647 70.81806360921259 99.07343655741333 H 0.0 **** 0.06
2666 C 72.07870014578958 114.8448844548692 72.69871941060536 C 0.0 **** -0.24
2667 H 71.0216751226899 115.10190489685698 72.62686185830638 H 0.0 **** 0.06
2668 H 72.57056495622784 115.52399661244527 73.39641322645318 H 0.0 **** 0.06
2669 H 72.54131252527793 114.93511512791378 71.71604647665939 H 0.0 **** 0.06
2670 H 72.18055932616159 113.82007115497782 73.05590746817106 H 0.0 **** 0.06
2671 C 82.53735423539202 67.69991381191863 110.80082991951649 C 0.0 **** -0.24
2672 H 82.63016974144412 68.78565577650187 110.84071231664676 H 0.0 **** 0.06
2673 H 81.5850567188791 67.4338666897462 110.34216199825012 H 0.0 **** 0.06
2674 H 82.57984758233937 67.29488022249865 111.81156775634001 H 0.0 **** 0.06
2675 H 83.35474250872417 67.28744165143121 110.20865759679582 H 0.0 **** 0.06
2676 C 106.56368814248128 38.884708729376264 116.77801544238953 C 0.0 **** -0.24
2677 H 106.67006497195206 37.808757860562494 116.64126904835048 H 0.0 **** 0.06
2678 H 105.73421998340967 39.247196771450454 116.16980006691351 H 0.0 **** 0.06
2679 H 107.48361896387689 39.382265291807926 116.47235613730912 H 0.0 **** 0.06
2680 H 106.36544789695705 39.10043180709843 117.82870299275585 H 0.0 **** 0.06
2681 C 105.58525605095599 109.67663941489897 97.38621324526267 C 0.0 **** -0.24
2682 H 104.56826881807137 109.75610714086449 97.00315357547343 H 0.0 **** 0.06
2683 H 105.83331547955305 110.57827998395547 97.94731729446427 H 0.0 **** 0.06
2684 H 106.27950905008339 109.56359395977901 96.55346934691741 H 0.0 **** 0.06
2685 H 105.65915202537997 108.80798127000585 98.04111044660301 H 0.0 **** 0.06
2686 C 124.89190629527045 36.21635683954159 62.427401768467604 C 0.0 **** -0.24
2687 H 125.94491574832517 36.35893752895461 62.669134498881505 H 0.0 **** 0.06
2688 H 124.59791432593778 36.925497605119716 61.65325448569817 H 0.0 **** 0.06
2689 H 124.2883225716692 36.381239537019184 63.31968045913331 H 0.0 **** 0.06
2690 H 124.73591040929347 35.199387191146315 62.066292433541065 H 0.0 **** 0.06
2691 C 117.26146791890712 53.34899091565205 9.368667819020146 C 0.0 **** -0.24
2692 H 117.02139065644177 52.336534517371945 9.691672152600482 H 0.0 **** 0.06
2693 H 116.82870417600374 53.52791752944381 8.383552202361539 H 0.0 **** 0.06
2694 H 118.34338081313258 53.46786303892637 9.31690131442847 H 0.0 **** 0.06
2695 H 116.85050502431041 54.06462459156347 10.0813324477174 H 0.0 **** 0.06
2696 C 24.138864107585533 8.49318630292646 142.97405335436295 C 0.0 **** -0.24
2697 H 23.14094224131857 8.549684936465837 142.5386997392273 H 0.0 **** 0.06
2698 H 24.248617440527227 7.549843851494188 143.50982584391213 H 0.0 **** 0.06
2699 H 24.280117841077562 9.323286316553379 143.66646888141668 H 0.0 **** 0.06
2700 H 24.884099468634652 8.550034751077476 142.18162964264815 H 0.0 **** 0.06
2701 C 108.57126711982202 117.73390879533964 65.26116990158494 C 0.0 **** -0.24
2702 H 107.91689289341458 116.86525951543508 65.18464069732536 H 0.0 **** 0.06
2703 H 108.87151640507248 117.87219779465657 66.29999251874915 H 0.0 **** 0.06
2704 H 108.04040384025508 118.62034022018646 64.91513902227743 H 0.0 **** 0.06
2705 H 109.45661179778786 117.57648481470879 64.64511439298869 H 0.0 **** 0.06
2706 C 115.42434299482348 73.48657712303947 83.32816668033315 C 0.0 **** -0.24
2707 H 116.27068710657518 73.97389849921495 82.84442666402 H 0.0 **** 0.06
2708 H 115.13606044011944 72.60494804557742 82.7539643453916 H 0.0 **** 0.06
2709 H 114.58463733928242 74.1796669860617 83.37535495148366 H 0.0 **** 0.06
2710 H 115.70536789803104 73.18719153958173 84.33841824366627 H 0.0 **** 0.06
2711 C 124.50242605720696 120.53062142985073 87.81818981735631 C 0.0 **** -0.24
2712 H 124.27613441217841 119.7933894425687 88.58872729197572 H 0.0 **** 0.06
2713 H 124.6780025520417 121.5008481999377 88.28468941988936 H 0.0 **** 0.06
2714 H 123.66178710101435 120.6046419347935 87.12913760156505 H 0.0 **** 0.06
2715 H 125.39468951311771 120.22212230787619 87.27264866476858 H 0.0 **** 0.06
2716 C 120.17302464972471 50.0012576103243 10.252036173453405 C 0.0 **** -0.24
2717 H 120.55508668729857 48.984232560126856 10.162831070382254 H 0.0 **** 0.06
2718 H 120.54739215532675 50.45113089153689 11.171731726349037 H 0.0 **** 0.06
2719 H 119.0834346182109 49.97932695282809 10.275816679899435 H 0.0 **** 0.06
2720 H 120.50497672370949 50.590346788737236 9.397030522329885 H 0.0 **** 0.06
2721 C 78.66842105219334 117.8338467471861 77.84397781378121 C 0.0 **** -0.24
2722 H 78.79327703381509 117.24666529413247 76.93406582321464 H 0.0 **** 0.06
2723 H 79.06021260438935 117.27408400361304 78.69451296329021 H 0.0 **** 0.06
2724 H 77.6096755058924 118.04041962385344 78.00087082448871 H 0.0 **** 0.06
2725 H 79.21185613471522 118.77377003890388 77.74635393261764 H 0.0 **** 0.06
2726 C 44.48125546313065 49.543463550142846 2.1037511747528868 C 0.0 **** -0.24
2727 H 44.962791461251584 50.405461163337065 2.5656484587119053 H 0.0 **** 0.06
2728 H 43.40225641693263 49.611635882673895 2.2432198023853687 H 0.0 **** 0.06
2729 H 44.85070403535721 48.62885315499223 2.5676008018338337 H 0.0 **** 0.06
2730 H 44.71059750391876 49.5283147386823 1.0382730487981178 H 0.0 **** 0.06
2731 C 103.54219817051231 25.28745971789167 92.36798759955465 C 0.0 **** -0.24
2732 H 104.30868382430037 24.58559175145391 92.69402275573867 H 0.0 **** 0.06
2733 H 103.99596001772545 26.26185340319598 92.18761293761133 H 0.0 **** 0.06
2734 H 102.78062812677561 25.379099915511297 93.14333210501178 H 0.0 **** 0.06
2735 H 103.08364634242601 24.92366644162535 91.4494003712826 H 0.0 **** 0.06
2736 C 52.92390343596648 38.33481935343927 39.806787485805586 C 0.0 **** -0.24
2737 H 53.82440628544518 38.514892921519696 40.394721209708536 H 0.0 **** 0.06
2738 H 53.204661721868405 38.058304361081404 38.78958975566334 H 0.0 **** 0.06
2739 H 52.31775734297324 39.24069549040545 39.78337263149015 H 0.0 **** 0.06
2740 H 52.35068043641505 37.52515767959532 40.25829635450148 H 0.0 **** 0.06
2741 C 28.775409242700768 98.50726714998176 57.4124971390375 C 0.0 **** -0.24
2742 H 28.969496538516253 98.47383258271958 56.33973798006761 H 0.0 **** 0.06
2743 H 29.68907421915508 98.26195224912215 57.953654966370124 H 0.0 **** 0.06
2744 H 27.998945103845905 97.7846467178498 57.66305658874697 H 0.0 **** 0.06
2745 H 28.44542304587474 99.50748499887405 57.691093999101014 H 0.0 **** 0.06
2746 C 12.495105018065601 126.63177875700416 104.5831432444248 C 0.0 **** -0.24
2747 H 12.525243214580257 127.60594450796839 104.09518969031453 H 0.0 **** 0.06
2748 H 13.005810944375526 125.8977467977569 103.95882402106994 H 0.0 **** 0.06
2749 H 11.458784628391243 126.3288949316327 104.72623150534764 H 0.0 **** 0.06
2750 H 12.992482680279124 126.69584475238389 105.55069886874665 H 0.0 **** 0.06
2751 C 117.01182202987832 124.16913529265659 111.75299773263275 C 0.0 **** -0.24
2752 H 117.99123932676014 124.09182677999169 112.22622822194914 H 0.0 **** 0.06
2753 H 116.85993295756214 123.31603219893486 111.09114974980879 H 0.0 **** 0.06
2754 H 116.9606894441311 125.09190336861681 111.1736070978857 H 0.0 **** 0.06
2755 H 116.23802337477974 124.17792821138838 112.52003891972005 H 0.0 **** 0.06
2756 C 109.30015972995885 53.08140665526355 72.66951980260035 C 0.0 **** -0.24
2757 H 109.20203118437429 54.12926276243468 72.95182678062793 H 0.0 **** 0.06
2758 H 110.32084850606547 52.74921766994578 72.8599215098763 H 0.0 **** 0.06
2759 H 109.07287704205648 52.96775834860091 71.60975448897301 H 0.0 **** 0.06
2760 H 108.60671565994583 52.48048872371419 73.25722961682368 H 0.0 **** 0.06
2761 C 79.07930364590291 64.74641980056751 51.52361229959014 C 0.0 **** -0.24
2762 H 79.33786019707534 64.30983147807767 50.55882162240758 H 0.0 **** 0.06
2763 H 79.68642300740362 64.28662851533583 52.30432928627934 H 0.0 **** 0.06
2764 H 78.0246448234951 64.5683578809772 51.73205555198675 H 0.0 **** 0.06
2765 H 79.26956938813956 65.81884805856937 51.499791690825944 H 0.0 **** 0.06
2766 C 99.41521820108439 117.83830612188939 8.524315321014683 C 0.0 **** -0.24
2767 H 99.23962086717471 117.29794523645819 9.453821926507601 H 0.0 **** 0.06
2768 H 100.34376335891587 118.40421013613644 8.604149299763037 H 0.0 **** 0.06
2769 H 98.58742639241792 118.5225336857489 8.339139077744505 H 0.0 **** 0.06
2770 H 99.49204387487671 117.12860520119449 7.70118454610332 H 0.0 **** 0.06
2771 C 17.595592439254233 49.78183910620925 133.2301053842056 C 0.0 **** -0.24
2772 H 17.53109190080994 50.866362369618 133.14404811839265 H 0.0 **** 0.06
2773 H 17.723399692643795 49.34650654477747 132.23811856911442 H 0.0 **** 0.06
2774 H 16.680977409345417 49.39721174471441 133.6805052088674 H 0.0 **** 0.06
2775 H 18.448317181448772 49.5167876971629 133.85496468806124 H 0.0 **** 0.06
2776 C 119.40894717412945 110.42604636991399 24.87684234734678 C 0.0 **** -0.24
2777 H 118.66887234915029 109.62962469125284 24.79647646465341 H 0.0 **** 0.06
2778 H 120.00593180360718 110.45937034025428 23.965174762627157 H 0.0 **** 0.06
2779 H 120.05850612224285 110.23269019462475 25.730140905613297 H 0.0 **** 0.06
2780 H 118.90219110138494 111.38035694325572 25.014426634780108 H 0.0 **** 0.06
2781 C 50.01286136666474 142.93241495666018 51.56977121956598 C 0.0 **** -0.24
2782 H 49.4951621298235 143.6497167477684 52.20777639339397 H 0.0 **** 0.06
2783 H 50.6210957643966 142.27010053787876 52.18632653160196 H 0.0 **** 0.06
2784 H 50.65331643666535 143.4675246960271 50.86878423104585 H 0.0 **** 0.06
2785 H 49.28064653103897 142.34485645445974 51.016434691715034 H 0.0 **** 0.06
2786 C 136.8614229511281 98.47701672542327 80.01343893513729 C 0.0 **** -0.24
2787 H 136.19231307510148 99.11123364058822 80.59361279402668 H 0.0 **** 0.06
2788 H 136.29384451164645 97.96810207091069 79.23316361999777 H 0.0 **** 0.06
2789 H 137.321471794772 97.73801349181113 80.669020474546 H 0.0 **** 0.06
2790 H 137.63823027006706 99.09085968250454 79.5562407719705 H 0.0 **** 0.06
2791 C 103.96205091666727 100.72958598337951 115.16019570115313 C 0.0 **** -0.24
2792 H 103.81001703713143 101.15291285060593 116.15361605905744 H 0.0 **** 0.06
2793 H 104.8217624515491 100.05902654498611 115.18019716934154 H 0.0 **** 0.06
2794 H 104.1429226603133 101.53295877924621 114.44596431985102 H 0.0 **** 0.06
2795 H 103.07323622957276 100.17208570065836 114.86276027283279 H 0.0 **** 0.06
2796 C 56.34670511958234 19.32435381716779 2.365952100872267 C 0.0 **** -0.24
2797 H 55.71259455126682 18.97638454200282 3.181187682393798 H 0.0 **** 0.06
2798 H 55.78226683132783 19.306869885762396 1.433073934429153 H 0.0 **** 0.06
2799 H 57.214912110966395 18.6706755789576 2.2777346957852735 H 0.0 **** 0.06
2800 H 56.67786133288121 20.34170030620588 2.5714235746297582 H 0.0 **** 0.06
2801 C 140.77970101806616 19.67681471777891 108.39650293947157 C 0.0 **** -0.24
2802 H 141.10761758757224 20.118170383710122 109.33791879722334 H 0.0 **** 0.06
2803 H 141.65115166141146 19.38295688538031 107.81092692210488 H 0.0 **** 0.06
2804 H 140.19510957139855 20.407387473517332 107.83684749949659 H 0.0 **** 0.06
2805 H 140.16619097527052 18.799635119534443 108.60109584874364 H 0.0 **** 0.06
2806 C 95.12324932050376 43.788041357225666 68.16150002280568 C 0.0 **** -0.24
2807 H 95.37348401998207 42.74199043655824 68.33736914587442 H 0.0 **** 0.06
2808 H 94.93916620583903 43.944590631973895 67.09861967762079 H 0.0 **** 0.06
2809 H 95.95144981635431 44.418566542085784 68.48382872852872 H 0.0 **** 0.06
2810 H 94.22802013724211 44.04697044914698 68.72729093198238 H 0.0 **** 0.06
2811 C 142.8554774232134 46.30486147218244 11.915008486368947 C 0.0 **** -0.24
2812 H 142.37436357497444 46.04278845891116 12.857804401252281 H 0.0 **** 0.06
2813 H 142.09531466875373 46.600033381641424 11.189636747450777 H 0.0 **** 0.06
2814 H 143.4046830890883 45.443192282285054 11.53609395564763 H 0.0 **** 0.06
2815 H 143.5444938652485 47.13339643714528 12.077316918313585 H 0.0 **** 0.06
2816 C 107.23005978987278 28.480939046893667 16.421279605294984 C 0.0 **** -0.24
2817 H 106.61795226456785 29.105664174085405 15.770898345712993 H 0.0 **** 0.06
2818 H 106.94681188171386 28.650885598796293 17.460492158569167 H 0.0 **** 0.06
2819 H 108.28192305130251 28.73673245909987 16.284691132829636 H 0.0 **** 0.06
2820 H 107.0760792772512 27.43190166255968 16.168278679124143 H 0.0 **** 0.06
2821 C 107.26308894247379 116.70334806966547 55.35919296677129 C 0.0 **** -0.24
2822 H 107.57125520935861 117.68379396917469 54.993460319273225 H 0.0 **** 0.06
2823 H 106.33215621407638 116.80026106549262 55.91691778997489 H 0.0 **** 0.06
2824 H 108.03742706812253 116.29866926353115 56.01027928320137 H 0.0 **** 0.06
2825 H 107.11304701375619 116.03209746079365 54.51301332854359 H 0.0 **** 0.06
2826 C 61.760482471101625 9.625579678697136 109.87900476423056 C 0.0 **** -0.24
2827 H 61.667555272424636 10.321825232481615 110.71188381690644 H 0.0 **** 0.06
2828 H 61.33390698051704 10.074137052065169 108.98111468981818 H 0.0 **** 0.06
2829 H 61.227017601687805 8.704553933838554 110.11332013422646 H 0.0 **** 0.06
2830 H 62.81388157884584 9.40100261036514 109.70822594020927 H 0.0 **** 0.06
2831 C 38.26064728027864 56.59842312288589 57.28946257135922 C 0.0 **** -0.24
2832 H 37.873133096274486 56.250322491388545 58.247306835708486 H 0.0 **** 0.06
2833 H 39.34818012892973 56.523185899164275 57.28820867499968 H 0.0 **** 0.06
2834 H 37.96732234928564 57.63656001365405 57.13418808052579 H 0.0 **** 0.06
2835 H 37.85261394339292 55.98094446134286 56.4879871296301 H 0.0 **** 0.06
2836 C 101.17813044141205 144.45305296057245 62.283846786764954 C 0.0 **** -0.24
2837 H 101.65363071467836 144.8183852867374 63.19420258936853 H 0.0 **** 0.06
2838 H 101.66339583484663 143.52927636033212 61.96692055087793 H 0.0 **** 0.06
2839 H 101.272746140389 145.20178998251487 61.49832430300559 H 0.0 **** 0.06
2840 H 100.12237840052184 144.26051698366865 62.47789697653103 H 0.0 **** 0.06
2841 C 12.509032909096788 42.145728235142116 45.980092335301435 C 0.0 **** -0.24
2842 H 12.516596740768648 42.3540138124107 44.9100620476964 H 0.0 **** 0.06
2843 H 12.354275895288254 43.07325114321762 46.53024537429434 H 0.0 **** 0.06
2844 H 13.462933045711623 41.70437390807328 46.27031090916469 H 0.0 **** 0.06
2845 H 11.702003398904367 41.44816680970851 46.20769152949323 H 0.0 **** 0.06
2846 C 51.35661980752755 16.161488346153575 53.653918736024465 C 0.0 **** -0.24
2847 H 50.397083615260726 16.314147754876586 53.15938226822274 H 0.0 **** 0.06
2848 H 51.745228654472754 15.17620183181399 53.39297885117389 H 0.0 **** 0.06
2849 H 51.224096840165174 16.226192763673012 54.733160983375925 H 0.0 **** 0.06
2850 H 52.059412935244666 16.927342407512953 53.32710497274455 H 0.0 **** 0.06
2851 C 98.10233158526196 74.83934988122662 130.05621891481417 C 0.0 **** -0.24
2852 H 98.37927216066689 75.10845474563529 129.03637802843423 H 0.0 **** 0.06
2853 H 97.9076612670518 73.76793887248458 130.108791102572 H 0.0 **** 0.06
2854 H 97.20606912782327 75.38754796395023 130.34521948941938 H 0.0 **** 0.06
2855 H 98.91860380110933 75.09456466090631 130.73234760328336 H 0.0 **** 0.06
2856 C 73.17989266987436 64.6611400563153 16.845874030963017 C 0.0 **** -0.24
2857 H 74.10915721647137 64.10280182241746 16.737510439224565 H 0.0 **** 0.06
2858 H 72.72933337170795 64.43218903587382 17.8118774815658 H 0.0 **** 0.06
2859 H 72.4918857445837 64.38027547712215 16.047942648192475 H 0.0 **** 0.06
2860 H 73.3888587577035 65.72880169135641 16.785362333648607 H 0.0 **** 0.06
2861 C 93.36272926945583 62.534409897393175 51.32175389132108 C 0.0 **** -0.24
2862 H 92.79874553385173 61.65478556064602 51.009473052197734 H 0.0 **** 0.06
2863 H 93.85946618826856 62.32827555866788 52.27051045653094 H 0.0 **** 0.06
2864 H 92.68244458676375 63.37751974333679 51.44291677056873 H 0.0 **** 0.06
2865 H 94.10877612046977 62.77523459255741 50.56479984046544 H 0.0 **** 0.06
2866 C 79.63837875170208 143.03497492646733 108.31979153005209 C 0.0 **** -0.24
2867 H 79.57432481979812 143.23900353617142 107.25142723155382 H 0.0 **** 0.06
2868 H 78.72352115745404 142.5439669507584 108.65262734298675 H 0.0 **** 0.06
2869 H 79.76557401830333 143.9723702021482 108.86142735281801 H 0.0 **** 0.06
2870 H 80.49162157821117 142.38444085792017 108.5144939847054 H 0.0 **** 0.06
2871 C 32.41249780551482 61.779467429802 136.75875363342402 C 0.0 **** -0.24
2872 H 31.68421213842373 61.04759195689152 137.10641168885974 H 0.0 **** 0.06
2873 H 31.996597721812577 62.78272000147541 136.86132739983753 H 0.0 **** 0.06
2874 H 32.6467867426943 61.589135009265306 135.71093198765846 H 0.0 **** 0.06
2875 H 33.321280460671346 61.700359521370075 137.35434146662232 H 0.0 **** 0.06
2876 C 44.69692483483996 116.93865211713798 33.37448906047294 C 0.0 **** -0.24
2877 H 43.87763170221436 116.28586334557939 33.073264095776665 H 0.0 **** 0.06
2878 H 44.386410630970516 117.53973214299636 34.22886755366872 H 0.0 **** 0.06
2879 H 44.96219532394056 117.59397364615425 32.545688060523446 H 0.0 **** 0.06
2880 H 45.56062252160433 116.3327481748582 33.65035254611789 H 0.0 **** 0.06
2881 C 56.54747649988994 63.4094793197648 47.69516893230684 C 0.0 **** -0.24
2882 H 55.81508778343883 62.617303742912554 47.541339488163544 H 0.0 **** 0.06
2883 H 56.13715734955676 64.35729959624184 47.344997732649915 H 0.0 **** 0.06
2884 H 57.45509372069074 63.17738629382893 47.13714227993404 H 0.0 **** 0.06
2885 H 56.782567145873685 63.48592764607592 48.75719622848004 H 0.0 **** 0.06
2886 C 144.2581258674891 119.09887268753916 8.367691212798206 C 0.0 **** -0.24
2887 H 143.35548062174144 119.0611124966223 7.75798996037895 H 0.0 **** 0.06
2888 H 145.0863329090285 118.65221200990008 7.818678301272371 H 0.0 **** 0.06
2889 H 144.09459764821742 118.5451724956177 9.292562307609728 H 0.0 **** 0.06
2890 H 144.4948137620868 120.13736483505055 8.603026874655484 H 0.0 **** 0.06
2891 C 132.7589021826327 100.75102190385955 61.45409722900722 C 0.0 **** -0.24
2892 H 131.93591356085062 100.04437441560043 61.3432640706927 H 0.0 **** 0.06
2893 H 132.39153675727835 101.76352585638432 61.28711135359802 H 0.0 **** 0.06
2894 H 133.53511925391695 100.52032765818461 60.72430607426827 H 0.0 **** 0.06
2895 H 133.17087044842555 100.67370660790587 62.460418450810266 H 0.0 **** 0.06
2896 C 33.89423013103597 102.15259363450633 13.041738306395303 C 0.0 **** -0.24
2897 H 32.88651105757146 102.05525521398198 12.638253011869892 H 0.0 **** 0.06
2898 H 34.61857597957715 102.0891859964077 12.228628513271644 H 0.0 **** 0.06
2899 H 34.07848607114011 101.35094989489778 13.756338839491491 H 0.0 **** 0.06
2900 H 33.99291792761578 103.11551583331101 13.542141565711802 H 0.0 **** 0.06
2901 C 85.0713351419549 94.63456127584962 128.43452911346193 C 0.0 **** -0.24
2902 H 85.32966774482153 94.3244756636983 127.42220107465963 H 0.0 **** 0.06
2903 H 84.2548246439471 95.35639211322622 128.39688883101442 H 0.0 **** 0.06
2904 H 85.94046307468474 95.09177611076414 128.90795930674395 H 0.0 **** 0.06
2905 H 84.75926337412236 93.76407970109746 129.01262511711053 H 0.0 **** 0.06
2906 C 81.85147190750232 114.46788556005532 67.63516737352387 C 0.0 **** -0.24
2907 H 82.34092263371012 113.49366758291683 67.6395538725382 H 0.0 **** 0.06
2908 H 82.2946092574087 115.1004523644271 68.40429052476871 H 0.0 **** 0.06
2909 H 80.78794854451942 114.34056454627523 67.8356874123981 H 0.0 **** 0.06
2910 H 81.98338593384499 114.93518704419444 66.65963732290118 H 0.0 **** 0.06
2911 C 114.1082460635035 82.10626878085927 112.27400365046134 C 0.0 **** -0.24
2912 H 114.16312715264685 81.86042368039475 111.21409134510549 H 0.0 **** 0.06
2913 H 114.70533832721542 82.99692703455955 112.47202041603458 H 0.0 **** 0.06
2914 H 114.49448823493141 81.27281609365713 112.86076723173483 H 0.0 **** 0.06
2915 H 113.07114851909746 82.29510890645125 112.54997820695155 H 0.0 **** 0.06
2916 C 76.51869524733523 61.62339406240059 110.66632822591023 C 0.0 **** -0.24
2917 H 75.85826193299869 62.40259893786791 111.04868088768822 H 0.0 **** 0.06
2918 H 75.9385150796969 60.722293599052875 110.46558495998383 H 0.0 **** 0.06
2919 H 77.28849946011752 61.40444495007429 111.40546326246127 H 0.0 **** 0.06
2920 H 76.98743889190177 61.96755198882224 109.7442584748508 H 0.0 **** 0.06
2921 C 45.69355627039836 57.28486713202665 123.16442032997747 C 0.0 **** -0.24
2922 H 44.94355406593753 57.44893523862157 123.93915145291746 H 0.0 **** 0.06
2923 H 46.602085426781585 56.88992861772189 123.61778462897905 H 0.0 **** 0.06
2924 H 45.914150299395075 58.22958345618969 122.6678337592622 H 0.0 **** 0.06
2925 H 45.311220089914556 56.571327425150486 122.43416417649478 H 0.0 **** 0.06
2926 C 137.52659361534592 66.44080839279813 115.46793420178815 C 0.0 **** -0.24
2927 H 137.62102349395366 67.3998595303762 115.97742887080798 H 0.0 **** 0.06
2928 H 138.51868241427678 66.05531164207093 115.23421441412992 H 0.0 **** 0.06
2929 H 136.9611159848522 66.5735916132204 114.54574357594359 H 0.0 **** 0.06
2930 H 137.00617209218234 65.73588727880951 116.11596548189291 H 0.0 **** 0.06
2931 C 20.89220820750623 61.01111848414098 72.4290233301096 C 0.0 **** -0.24
2932 H 20.425336453937035 61.630462811209355 73.19470750437841 H 0.0 **** 0.06
2933 H 21.433398382950344 61.64600182240733 71.727991086222 H 0.0 **** 0.06
2934 H 20.122358641065375 60.45337161295609 71.89463861643264 H 0.0 **** 0.06
2935 H 21.585343916433914 60.31412654705264 72.89872639654516 H 0.0 **** 0.06
2936 C 111.02317947358186 78.94699739938513 35.52724067296546 C 0.0 **** -0.24
2937 H 110.54369234975245 79.74264383747543 36.09823960405846 H 0.0 **** 0.06
2938 H 111.81883807505967 78.50030271020222 36.12462848769806 H 0.0 **** 0.06
2939 H 111.44397020763905 79.36076675207853 34.611215048071486 H 0.0 **** 0.06
2940 H 110.28492988626688 78.18529335573412 35.27669848558364 H 0.0 **** 0.06
2941 C 91.438591228001 103.89483847441429 59.25379706051439 C 0.0 **** -0.24
2942 H 90.86473747524838 104.62948183356798 58.688870601718904 H 0.0 **** 0.06
2943 H 92.48544253541691 103.94430056014676 58.955336495313205 H 0.0 **** 0.06
2944 H 91.04907830593334 102.8965946967661 59.05358979611151 H 0.0 **** 0.06
2945 H 91.35398456520014 104.11126400300998 60.31973875335727 H 0.0 **** 0.06
2946 C 59.45541088165942 40.77425436443323 63.701205613319615 C 0.0 **** -0.24
2947 H 60.428768982854876 41.1934688494227 63.95359829339404 H 0.0 **** 0.06
2948 H 59.2114779910919 39.97465537246012 64.40125856115185 H 0.0 **** 0.06
2949 H 59.48544811663248 40.37363753324158 62.687615042963756 H 0.0 **** 0.06
2950 H 58.696730900848706 41.554346066696425 63.76110137907773 H 0.0 **** 0.06
2951 C 141.90216885535864 31.786788824536814 83.83152297582438 C 0.0 **** -0.24
2952 H 142.89523776273373 31.402035359928988 83.5976814737972 H 0.0 **** 0.06
2953 H 141.9908795301703 32.79097023511375 84.24706002953423 H 0.0 **** 0.06
2954 H 141.4215212006411 31.132857385138834 84.55930413128684 H 0.0 **** 0.06
2955 H 141.3026519525976 31.821350774101177 82.92142304390632 H 0.0 **** 0.06
2956 C 64.18960850882988 22.824392041417667 139.68441464378049 C 0.0 **** -0.24
2957 H 63.623424935816985 22.640974231287487 138.7708283055065 H 0.0 **** 0.06
2958 H 63.52599093433284 22.742075038803563 140.54493106006203 H 0.0 **** 0.06
2959 H 64.61883740746347 23.825462735029987 139.65006509215706 H 0.0 **** 0.06
2960 H 64.98989318864298 22.089007003678432 139.76902071428046 H 0.0 **** 0.06
2961 C 93.68723357054756 27.24786502713681 37.81650039485669 C 0.0 **** -0.24
2962 H 94.48960237801283 26.552695874956214 37.56797056855504 H 0.0 **** 0.06
2963 H 92.77311459852709 26.944144326748926 37.30685530703971 H 0.0 **** 0.06
2964 H 93.9659130553784 28.25277711849202 37.496551324901304 H 0.0 **** 0.06
2965 H 93.52232127865278 27.241946145578765 38.89366462260543 H 0.0 **** 0.06
2966 C 106.4904939690415 124.38485291278354 106.90942055165522 C 0.0 **** -0.24
2967 H 106.65435631255241 124.32176594116183 107.98473214378146 H 0.0 **** 0.06
2968 H 105.4759678165409 124.73412867866725 106.71568606397716 H 0.0 **** 0.06
2969 H 106.62835213077221 123.40048567991005 106.46289715653813 H 0.0 **** 0.06
2970 H 107.20464147238357 125.08476139481294 106.4739123201208 H 0.0 **** 0.06
2971 C 86.70689484242337 56.05947539776652 98.53464700458852 C 0.0 **** -0.24
2972 H 86.02717726607773 56.61412730426612 97.88777284728798 H 0.0 **** 0.06
2973 H 86.31851067619874 55.052136253820635 98.68882722136297 H 0.0 **** 0.06
2974 H 86.7909328855317 56.56773871315448 99.49528424674196 H 0.0 **** 0.06
2975 H 87.6892324356534 56.002248772003625 98.06615917448767 H 0.0 **** 0.06
2976 C 19.240126925109507 52.288509609723775 64.55516013856172 C 0.0 **** -0.24
2977 H 18.633700526452998 52.042105006584606 65.42625695004357 H 0.0 **** 0.06
2978 H 19.416407108774933 51.38698925229315 63.96806452832823 H 0.0 **** 0.06
2979 H 20.194795167607992 52.70163839192931 64.88197979277327 H 0.0 **** 0.06
2980 H 18.716078742825687 53.0243290494396 63.94519280186235 H 0.0 **** 0.06
2981 C 65.75357589428417 37.69858873118028 116.06159889808683 C 0.0 **** -0.24
2982 H 64.81439622111421 37.17226299353004 116.23482620174983 H 0.0 **** 0.06
2983 H 66.25937173804779 37.26449061566669 115.19853555587034 H 0.0 **** 0.06
2984 H 66.38962751311287 37.603700065256305 116.94185362786507 H 0.0 **** 0.06
2985 H 65.54908572067983 38.75268550537365 115.8716286471089 H 0.0 **** 0.06
2986 C 89.97828568713015 55.536992823385646 126.46288437378547 C 0.0 **** -0.24
2987 H 90.25906878798088 54.88119425747557 127.28618378944753 H 0.0 **** 0.06
2988 H 89.04156908990512 56.04101857510307 126.70248401657744 H 0.0 **** 0.06
2989 H 89.85118333010553 54.945401671138384 125.55533279434695 H 0.0 **** 0.06
2990 H 90.76093996823141 56.278716940392485 126.30505381411155 H 0.0 **** 0.06
2991 C 126.81289939107683 50.753123256955305 72.52313678899932 C 0.0 **** -0.24
2992 H 127.38555371993789 51.261169022384564 71.74648598874035 H 0.0 **** 0.06
2993 H 126.89081008811524 51.31243028280703 73.45527865405467 H 0.0 **** 0.06
2994 H 127.2096069262995 49.74843498535539 72.66737784436394 H 0.0 **** 0.06
2995 H 125.76738451855135 50.692225961014785 72.22173498498071 H 0.0 **** 0.06
2996 C 50.957686747451405 61.473199253498706 118.4764973713849 C 0.0 **** -0.24
2997 H 50.01918355145406 61.37934562414095 119.0233393658932 H 0.0 **** 0.06
2998 H 51.42648402620006 60.49228090528119 118.39008984665061 H 0.0 **** 0.06
2999 H 51.6235278650137 62.14903963766726 119.01244162637015 H 0.0 **** 0.06
3000 H 50.75888495907951 61.87056811778412 117.48078769269405 H 0.0 **** 0.06
3001 C 109.35055602944546 13.857294929109173 90.32717367992008 C 0.0 **** -0.24
3002 H 109.54790121210424 14.663182257187827 91.03307404701667 H 0.0 **** 0.06
3003 H 108.38476045777684 13.404373771676461 90.55316764732254 H 0.0 **** 0.06
3004 H 110.13346825546815 13.103475876364712 90.40780965685522 H 0.0 **** 0.06
3005 H 109.33603339998525 14.257905261670885 89.31325140535273 H 0.0 **** 0.06
3006 C 91.43469142726427 113.2916078665997 42.10122550620656 C 0.0 **** -0.24
3007 H 92.29869867251381 113.7020077342889 42.62508176530804 H 0.0 **** 0.06
3008 H 91.41269979735712 113.6760343829968 41.081749417160665 H 0.0 **** 0.06
3009 H 90.52269314224476 113.58536588961631 42.62045496222309 H 0.0 **** 0.06
3010 H 91.50648631156861 112.20402417464722 42.0795432609448 H 0.0 **** 0.06
3011 C 50.36571761358438 90.55569009899733 116.57023383361688 C 0.0 **** -0.24
3012 H 49.31185618344149 90.77453215536286 116.3960581475064 H 0.0 **** 0.06
3013 H 50.813880527982036 90.17480051033141 115.65221256725447 H 0.0 **** 0.06
3014 H 50.455299788487594 89.80681122327681 117.35736366639337 H 0.0 **** 0.06
3015 H 50.88000494884136 91.46701512217894 116.8760052396549 H 0.0 **** 0.06
3016 C 127.97759725902989 94.95408537300597 61.84323184477901 C 0.0 **** -0.24
3017 H 127.05266876525795 95.50154573323323 62.025589590516205 H 0.0 **** 0.06
3018 H 128.66797613058148 95.58263856829149 61.28120358221062 H 0.0 **** 0.06
3019 H 127.75836700368345 94.05182047447528 61.272445512259864 H 0.0 **** 0.06
3020 H 128.42923416594954 94.67931489910987 62.79658078308857 H 0.0 **** 0.06
3021 C 94.62985446685965 4.589997402778664 135.08825831684422 C 0.0 **** -0.24
3022 H 95.50371081481809 4.84740637381995 135.6873556643105 H 0.0 **** 0.06
3023 H 93.72390916445075 4.82377890516824 135.64903749937034 H 0.0 **** 0.06
3024 H 94.6494000128126 3.5254941861310556 134.8551665749703 H 0.0 **** 0.06
3025 H 94.64275058825285 5.165090368431919 134.16231410972654 H 0.0 **** 0.06
3026 C 119.10624544719053 26.14024940375259 130.17300132360668 C 0.0 **** -0.24
3027 H 118.72311162626079 27.014473466550683 130.69942478731255 H 0.0 **** 0.06
3028 H 119.75525355148272 25.57131528637038 130.83921703563905 H 0.0 **** 0.06
3029 H 119.67194081203155 26.461800182823552 129.29920918848248 H 0.0 **** 0.06
3030 H 118.27183465365994 25.51400300105209 129.85629326469248 H 0.0 **** 0.06
3031 C 123.8410995365054 85.84560373184291 79.34649858774964 C 0.0 **** -0.24
3032 H 124.92984219075092 85.83069469785215 79.39883461306222 H 0.0 **** 0.06
3033 H 123.44099316528076 86.31622424192523 80.24391269060885 H 0.0 **** 0.06
3034 H 123.46759856371492 84.82329745963634 79.27443694767942 H 0.0 **** 0.06
3035 H 123.52752288703647 86.40963777433194 78.46869386439157 H 0.0 **** 0.06
3036 C 41.27461271913397 11.782277779711805 124.91078490077922 C 0.0 **** -0.24
3037 H 41.43764139586902 11.81181129104089 125.98824456609452 H 0.0 **** 0.06
3038 H 40.320772546586014 11.296364023853286 124.70155365704909 H 0.0 **** 0.06
3039 H 42.08042729648899 11.221858233752187 124.43684324550924 H 0.0 **** 0.06
3040 H 41.25921009092333 12.798897122073022 124.51869085408657 H 0.0 **** 0.06
3041 C 55.343880829536644 134.58435122999606 34.07884939342401 C 0.0 **** -0.24
3042 H 55.28958085779098 134.9162009440776 35.1154231500727 H 0.0 **** 0.06
3043 H 56.2977423843879 134.88917862557216 33.648591005474856 H 0.0 **** 0.06
3044 H 54.52819788499113 135.03190796052468 33.51052182333086 H 0.0 **** 0.06
3045 H 55.25889474384982 133.49800248318715 34.04141022304378 H 0.0 **** 0.06
3046 C 136.94206668573287 63.72030456161323 47.72422408866096 C 0.0 **** -0.24
3047 H 136.70101062428628 63.4103999360693 48.74094675721419 H 0.0 **** 0.06
3048 H 137.93037504867158 63.34757617912831 47.45567611201729 H 0.0 **** 0.06
3049 H 136.9348245175236 64.80894862724514 47.6652785993528 H 0.0 **** 0.06
3050 H 136.19997949504972 63.31509099513006 47.035218624477764 H 0.0 **** 0.06
3051 C 118.69582266740166 26.21138486348613 56.69464292689793 C 0.0 **** -0.24
3052 H 119.73678986880826 26.52066059576022 56.59761340237105 H 0.0 **** 0.06
3053 H 118.59925930305319 25.51889960304296 57.530296884452014 H 0.0 **** 0.06
3054 H 118.37614213011726 25.719787050446158 55.77512952512262 H 0.0 **** 0.06
3055 H 118.0729594784295 27.087877210401253 56.87360805043494 H 0.0 **** 0.06
3056 C 130.75492765944742 4.186104684900933 130.15937158468066 C 0.0 **** -0.24
3057 H 130.87055056662533 4.822497187314795 129.2818906259834 H 0.0 **** 0.06
3058 H 131.730781589764 3.8083223607473293 130.46546886501847 H 0.0 **** 0.06
3059 H 130.10123712711336 3.3486839472960312 129.9161986507513 H 0.0 **** 0.06
3060 H 130.31733397340625 4.764701220842113 130.97254357455822 H 0.0 **** 0.06
3061 C 123.89349532180066 78.68151983822193 41.11163716330623 C 0.0 **** -0.24
3062 H 122.85953270158907 78.95079733080077 41.32556424369807 H 0.0 **** 0.06
3063 H 124.18102951846888 79.08767783727471 40.14189613645425 H 0.0 **** 0.06
3064 H 123.98958379563445 77.59532778557285 41.094008176297905 H 0.0 **** 0.06
3065 H 124.54283517753854 79.09140027573882 41.8845981143856 H 0.0 **** 0.06
3066 C 127.09338144763541 135.5561732427292 65.58242910207755 C 0.0 **** -0.24
3067 H 126.37946296737243 134.79243422971177 65.27270494244742 H 0.0 **** 0.06
3068 H 126.55381424696702 136.4366316846511 65.93133892333051 H 0.0 **** 0.06
3069 H 127.72433774399212 135.82716879746027 64.7363957555021 H 0.0 **** 0.06
3070 H 127.71430856486734 135.16692670071103 66.3889813438152 H 0.0 **** 0.06
3071 C 78.5938076950307 140.3798147533982 39.52284546442661 C 0.0 **** -0.24
3072 H 79.24984614883118 140.27358250763336 40.38681140924422 H 0.0 **** 0.06
3073 H 78.83291663045114 141.30471544707362 38.99746984310062 H 0.0 **** 0.06
3074 H 77.55676157198741 140.40746076917674 39.85576570652415 H 0.0 **** 0.06
3075 H 78.73777474278262 139.53314303964459 38.85210604622311 H 0.0 **** 0.06
3076 C 124.75665809919963 18.652466994147623 105.20929187785909 C 0.0 **** -0.24
3077 H 124.49863036857087 18.565343554691488 104.1534769658609 H 0.0 **** 0.06
3078 H 124.80849684995567 19.705912153307324 105.48537693940814 H 0.0 **** 0.06
3079 H 125.72358461048117 18.18207874279156 105.38724665153377 H 0.0 **** 0.06
3080 H 123.99513532054692 18.15601557239254 105.81072761009439 H 0.0 **** 0.06
3081 C 22.8077613609006 71.96576253647254 43.807543652277914 C 0.0 **** -0.24
3082 H 23.356662386003734 71.081494820628 43.483937161592905 H 0.0 **** 0.06
3083 H 22.92681016909995 72.75692667550413 43.06738652303743 H 0.0 **** 0.06
3084 H 23.19701401072561 72.30361623734558 44.76789938897112 H 0.0 **** 0.06
3085 H 21.75146704119257 71.71899713747433 43.90989599383944 H 0.0 **** 0.06
3086 C 42.00094339513032 131.5807052587499 120.22935343767931 C 0.0 **** -0.24
3087 H 42.96847536159686 132.05210425099747 120.05319204667857 H 0.0 **** 0.06
3088 H 41.37131169394908 131.7037593240468 119.34854784988475 H 0.0 **** 0.06
3089 H 41.520772118232344 132.04846315988505 121.08900162054913 H 0.0 **** 0.06
3090 H 42.14582735878781 130.51898039294258 120.42806384722566 H 0.0 **** 0.06
3091 C 59.606173407749196 76.71415684948929 82.9961010184283 C 0.0 **** -0.24
3092 H 59.983087707615624 77.68983030557575 82.68930334049784 H 0.0 **** 0.06
3093 H 58.63896133286195 76.53464640543416 82.52417962572231 H 0.0 **** 0.06
3094 H 59.49178428834918 76.69316018073306 84.07997009457584 H 0.0 **** 0.06
3095 H 60.309572531506404 75.93996201693673 82.68910762589158 H 0.0 **** 0.06
3096 C 138.64269331603427 68.73135090423938 102.77879382369278 C 0.0 **** -0.24
3097 H 137.92526605259397 68.84241035669561 103.59214543083797 H 0.0 **** 0.06
3098 H 139.54997170245937 69.28685321114324 103.01688419943298 H 0.0 **** 0.06
3099 H 138.20928489027682 69.12028883931475 101.85649214430796 H 0.0 **** 0.06
3100 H 138.88445835808278 67.67698181666171 102.65036748660445 H 0.0 **** 0.06
3101 C 109.6545615119566 74.11027850658992 51.03596965977498 C 0.0 **** -0.24
3102 H 108.93761255810448 74.81707482357514 51.453271760771415 H 0.0 **** 0.06
3103 H 109.12976248221445 73.21101076074453 50.7121557731097 H 0.0 **** 0.06
3104 H 110.39098960882085 73.84804836911557 51.79479958647693 H 0.0 **** 0.06
3105 H 110.15768213543119 74.56475270293737 50.182597096570845 H 0.0 **** 0.06
3106 C 129.99546004744366 119.91863414670595 69.74924182115376 C 0.0 **** -0.24
3107 H 130.38397960458295 118.9086789935316 69.61958834427392 H 0.0 **** 0.06
3108 H 130.82151236858942 120.60185786305422 69.95191620454406 H 0.0 **** 0.06
3109 H 129.2967005604366 119.93368970401056 70.58545614198584 H 0.0 **** 0.06
3110 H 129.48133720375918 120.22992853731935 68.84001171128617 H 0.0 **** 0.06
3111 C 50.63648496537027 23.529861013150196 116.34652495565207 C 0.0 **** -0.24
3112 H 51.17956181923573 23.176099313315035 115.4711924430341 H 0.0 **** 0.06
3113 H 50.74698576671082 22.809010564179516 117.1578554595137 H 0.0 **** 0.06
3114 H 49.58061971970973 23.640890537676057 116.09992422725789 H 0.0 **** 0.06
3115 H 51.03949455744318 24.493144250851913 116.65944918874966 H 0.0 **** 0.06
3116 C 17.197900552374833 92.94156238273229 110.22966780176039 C 0.0 **** -0.24
3117 H 17.020593523344523 92.15079004848764 110.95949948545218 H 0.0 **** 0.06
3118 H 17.70621074480043 93.77515958523094 110.71324541226095 H 0.0 **** 0.06
3119 H 16.24425950146947 93.2816461645375 109.82475706492785 H 0.0 **** 0.06
3120 H 17.819025979266613 92.55554144619163 109.42100596574689 H 0.0 **** 0.06
3121 C 134.56043264501773 48.79886934354025 24.59711938344961 C 0.0 **** -0.24
3122 H 134.0082605794834 47.914170405920174 24.27998897073796 H 0.0 **** 0.06
3123 H 135.54345615241132 48.801986337729744 24.125551793701405 H 0.0 **** 0.06
3124 H 134.67720054256384 48.78385928384742 25.68114239536162 H 0.0 **** 0.06
3125 H 134.0127564726194 49.69415610081799 24.303866417767566 H 0.0 **** 0.06
3126 C 78.51332874077363 138.28658941165182 2.6000510248938156 C 0.0 **** -0.24
3127 H 79.08810046443924 138.78374482505495 1.8186574895978538 H 0.0 **** 0.06
3128 H 77.62791125876154 137.82524702133145 2.1620841308287027 H 0.0 **** 0.06
3129 H 78.20919678057365 139.0185747626658 3.348621741214629 H 0.0 **** 0.06
3130 H 79.12767240015418 137.5195693183666 3.0703869590222723 H 0.0 **** 0.06
3131 C 70.17703215654605 35.02451293480106 75.33265537821337 C 0.0 **** -0.24
3132 H 69.64661821084698 34.094385625042385 75.53759719101217 H 0.0 **** 0.06
3133 H 71.14053072260778 35.01307217614852 75.84423685680547 H 0.0 **** 0.06
3134 H 69.58519111048274 35.86659726832149 75.6906330630647 H 0.0 **** 0.06
3135 H 70.33685790089821 35.12198353627734 74.25905112576908 H 0.0 **** 0.06
3136 C 47.635240042974345 15.9093898820581 76.57776944825805 C 0.0 **** -0.24
3137 H 46.972248353096816 15.61437154569682 75.76524065506754 H 0.0 **** 0.06
3138 H 47.99611154127993 15.018353351887889 77.09331250284683 H 0.0 **** 0.06
3139 H 47.090482976228515 16.539596076135425 77.28072093007627 H 0.0 **** 0.06
3140 H 48.48269983367132 16.463220593181255 76.17306416138148 H 0.0 **** 0.06
3141 C 120.13951488319765 76.38776074981678 75.75887642141072 C 0.0 **** -0.24
3142 H 120.69160187562761 75.50402563044258 75.43901068711261 H 0.0 **** 0.06
3143 H 119.28139617296665 76.08274172102645 76.35761556202328 H 0.0 **** 0.06
3144 H 119.7938243069708 76.93705814027598 74.88234498362317 H 0.0 **** 0.06
3145 H 120.79128176624477 77.02658047438024 76.35439145988204 H 0.0 **** 0.06
3146 C 126.43728335318431 37.599970929981964 142.61727764121892 C 0.0 **** -0.24
3147 H 125.34909478652187 37.53197135275863 142.62395811882286 H 0.0 **** 0.06
3148 H 126.7499654156239 38.480969591080736 143.1780558473176 H 0.0 **** 0.06
3149 H 126.79027193791043 37.67740362968186 141.58969014424517 H 0.0 **** 0.06
3150 H 126.85952660255847 36.70666058944869 143.07956029618137 H 0.0 **** 0.06
3151 C 100.7030422938691 125.89262543782385 43.1769782746276 C 0.0 **** -0.24
3152 H 101.49827295305356 125.3144764850783 43.646319123368386 H 0.0 **** 0.06
3153 H 101.05977285653998 126.90298030214407 42.974068688415855 H 0.0 **** 0.06
3154 H 99.84293507771899 125.9382601705376 43.84492134143768 H 0.0 **** 0.06
3155 H 100.41190838119977 125.41494444417503 42.24139727008078 H 0.0 **** 0.06
3156 C 142.38982782777774 46.27836089487738 110.44180932262732 C 0.0 **** -0.24
3157 H 143.104166958296 47.10103235248522 110.39136884429239 H 0.0 **** 0.06
3158 H 141.38073133083495 46.66332572475602 110.29089449194139 H 0.0 **** 0.06
3159 H 142.454443909715 45.8017092945355 111.42025755212818 H 0.0 **** 0.06
3160 H 142.62152302901157 45.5495484290484 109.6660828539169 H 0.0 **** 0.06
3161 C 94.43056260591173 124.63992120443325 63.12023535921685 C 0.0 **** -0.24
3162 H 94.29651399431489 124.82506838198282 64.18625478330846 H 0.0 **** 0.06
3163 H 93.48251234566102 124.7883430896549 62.604133136211615 H 0.0 **** 0.06
3164 H 94.76886500254463 123.61409396604601 62.96988604120911 H 0.0 **** 0.06
3165 H 95.17475201249796 125.33002632451733 62.722719389867336 H 0.0 **** 0.06
3166 C 134.37894350972965 98.28384455808788 47.965505090677766 C 0.0 **** -0.24
3167 H 134.4933169702691 98.57414558403462 46.92110625724905 H 0.0 **** 0.06
3168 H 133.3189509753208 98.24274342816506 48.21778956561894 H 0.0 **** 0.06
3169 H 134.87563504978675 99.01680778520944 48.60176160095483 H 0.0 **** 0.06
3170 H 134.82861033500762 97.30371408814926 48.12193037829326 H 0.0 **** 0.06
3171 C 131.36649104689945 82.8680118442728 44.51132060604233 C 0.0 **** -0.24
3172 H 130.93393603708776 81.87538174394871 44.38410596198487 H 0.0 **** 0.06
3173 H 132.20617560068325 82.98928873683549 43.82756653713237 H 0.0 **** 0.06
3174 H 131.71329333018758 82.98278943930573 45.538721801083085 H 0.0 **** 0.06
3175 H 130.61062257740548 83.62314865331123 44.29636447428537 H 0.0 **** 0.06
3176 C 52.67587226209207 128.57945848585868 32.997864085062474 C 0.0 **** -0.24
3177 H 52.218201754051904 128.55804063213753 33.986555568159275 H 0.0 **** 0.06
3178 H 53.48521158363849 127.85125680348577 32.95585189823137 H 0.0 **** 0.06
3179 H 53.0718519224306 129.57637749042283 32.80242474472391 H 0.0 **** 0.06
3180 H 51.924982672541944 128.333501978729 32.24579214855399 H 0.0 **** 0.06
3181 C 67.20960971110208 142.2817055389883 122.2025060156394 C 0.0 **** -0.24
3182 H 66.12903003674398 142.42383603744335 122.19526884662831 H 0.0 **** 0.06
3183 H 67.43536504088672 141.2152106298984 122.23417764629575 H 0.0 **** 0.06
3184 H 67.63412588057298 142.7691171485927 123.07975501577309 H 0.0 **** 0.06
3185 H 67.63899308871635 142.71902110412262 121.30093742549677 H 0.0 **** 0.06
3186 C 112.99857123623833 40.6972155908193 121.916673875966 C 0.0 **** -0.24
3187 H 112.08005127766329 40.676371873255846 122.5040345534019 H 0.0 **** 0.06
3188 H 113.18619651009415 39.7074614946917 121.50074903965778 H 0.0 **** 0.06
3189 H 113.83136187369847 40.98626043948042 122.55765883627448 H 0.0 **** 0.06
3190 H 112.89525763642341 41.41949156694821 121.10763953924562 H 0.0 **** 0.06
3191 C 36.02345168550093 7.877061349718414 43.72470806134389 C 0.0 **** -0.24
3192 H 35.4966978921245 8.83155503787517 43.72168219992669 H 0.0 **** 0.06
3193 H 35.34493777422077 7.0896109869294115 44.05275941960015 H 0.0 **** 0.06
3194 H 36.872421911901284 7.933384339226745 44.40680352306454 H 0.0 **** 0.06
3195 H 36.379792282200185 7.655385156492887 42.7190506081709 H 0.0 **** 0.06
3196 C 115.74216834149395 126.03082921480163 83.00990695724481 C 0.0 **** -0.24
3197 H 115.96376582252425 125.94381516582834 84.07366210512338 H 0.0 **** 0.06
3198 H 115.7334342279875 127.08321886274132 82.72484964090702 H 0.0 **** 0.06
3199 H 114.76593787639179 125.59089749751433 82.80479459071294 H 0.0 **** 0.06
3200 H 116.50455782653104 125.50570853035353 82.43535200544741 H 0.0 **** 0.06
3201 C 68.65938314128168 88.75793683089296 55.22846260663671 C 0.0 **** -0.24
3202 H 69.46923724353303 89.38645481765508 55.59907207258655 H 0.0 **** 0.06
3203 H 68.54651287494443 87.88956088921213 55.87799817146772 H 0.0 **** 0.06
3204 H 68.89043970100484 88.42752641378195 54.21530577767625 H 0.0 **** 0.06
3205 H 67.73096245036548 89.32915082502981 55.22049396527453 H 0.0 **** 0.06
3206 C 21.364079105442272 31.693500462585803 11.515126744256932 C 0.0 **** -0.24
3207 H 21.43549855089998 31.05566784559028 10.633762608659453 H 0.0 **** 0.06
3208 H 22.345751563624162 31.77448681750849 11.983684494301762 H 0.0 **** 0.06
3209 H 20.658327903959503 31.25887172726192 12.222051733564733 H 0.0 **** 0.06
3210 H 21.019038716288378 32.68410824603416 11.218370515069005 H 0.0 **** 0.06
3211 C 23.789832220734155 142.67825871905626 83.05446991975035 C 0.0 **** -0.24
3212 H 22.861913245002796 142.11257604995316 82.96598024853299 H 0.0 **** 0.06
3213 H 24.313041906209577 142.37805116946384 83.96262462635923 H 0.0 **** 0.06
3214 H 23.56109975248185 143.74327847792648 83.10166418470556 H 0.0 **** 0.06
3215 H 24.421053499288632 142.4795513181791 82.18855482768569 H 0.0 **** 0.06
3216 C 16.246990805474866 36.73999279516238 62.759575013922515 C 0.0 **** -0.24
3217 H 16.528962986275047 36.06177276283381 63.56570231598813 H 0.0 **** 0.06
3218 H 15.359908178221986 36.35575634284248 62.255737072896025 H 0.0 **** 0.06
3219 H 17.066284792466263 36.81697973713017 62.04581510649972 H 0.0 **** 0.06
3220 H 16.031390372271858 37.72530348406889 63.17368517652724 H 0.0 **** 0.06
3221 C 120.0485189827815 11.218522269677251 68.45889150453688 C 0.0 **** -0.24
3222 H 120.49643998057417 10.571298644386552 69.21326162392188 H 0.0 **** 0.06
3223 H 120.32726725789638 10.866834169068845 67.46584530709517 H 0.0 **** 0.06
3224 H 120.40588997800853 12.23935558912131 68.59802902253196 H 0.0 **** 0.06
3225 H 118.96327455379003 11.196243620648005 68.56133229560791 H 0.0 **** 0.06
3226 C 78.5704205417874 88.21486374001822 123.6483678830466 C 0.0 **** -0.24
3227 H 78.83751663382776 89.07072560267515 124.26824694023867 H 0.0 **** 0.06
3228 H 77.61017317194421 88.40086753570645 123.16659563126404 H 0.0 **** 0.06
3229 H 78.49891184132204 87.32372600964885 124.27149300889943 H 0.0 **** 0.06
3230 H 79.33653851227848 88.06533689821438 122.88647881754179 H 0.0 **** 0.06
3231 C 72.11675171564906 145.31044818006959 5.039169094764276 C 0.0 **** -0.24
3232 H 72.54861597843063 146.1249466380106 5.6211462757819675 H 0.0 **** 0.06
3233 H 72.87981100012581 144.55504878625635 4.851485368552318 H 0.0 **** 0.06
3234 H 71.74709550255818 145.69830950294207 4.0896809184623635 H 0.0 **** 0.06
3235 H 71.29195240607743 144.86468127550435 5.595528583919901 H 0.0 **** 0.06
3236 C 131.16649606228984 58.15644310263053 69.65216744922103 C 0.0 **** -0.24
3237 H 130.89504206622433 57.61652093599865 68.74535398840403 H 0.0 **** 0.06
3238 H 132.25208509598633 58.209066248983746 69.73190533366576 H 0.0 **** 0.06
3239 H 130.76317999575113 57.63352418334712 70.52032234608404 H 0.0 **** 0.06
3240 H 130.75454058756688 59.16513059598097 69.61169333003417 H 0.0 **** 0.06
3241 C 108.0777052640726 23.522760347481587 95.5699625419378 C 0.0 **** -0.24
3242 H 108.46193295651553 22.562143528481243 95.2259402565183 H 0.0 **** 0.06
3243 H 107.02789365371991 23.415641960412323 95.84476824381967 H 0.0 **** 0.06
3244 H 108.17115293685707 24.258355350189248 94.77202748674311 H 0.0 **** 0.06
3245 H 108.64848520346912 23.853056682851445 96.43798644650701 H 0.0 **** 0.06
3246 C 46.38333277199679 104.83281048851065 85.5434906747619 C 0.0 **** -0.24
3247 H 46.38651693885225 104.80605879797861 84.45362778287897 H 0.0 **** 0.06
3248 H 46.16439504636574 105.84453338776085 85.88192213654898 H 0.0 **** 0.06
3249 H 47.36203801219712 104.52805823607413 85.91558080003361 H 0.0 **** 0.06
3250 H 45.622233917606266 104.14941191658778 85.92049576334765 H 0.0 **** 0.06
3251 C 79.75505322160056 89.06963376010873 78.08956687962353 C 0.0 **** -0.24
3252 H 79.9654734231988 88.0000438906123 78.09433718816678 H 0.0 **** 0.06
3253 H 80.39782136672326 89.56873043490245 78.81532410847637 H 0.0 **** 0.06
3254 H 78.71045145986011 89.23473160696568 78.35475697404087 H 0.0 **** 0.06
3255 H 79.94633454054117 89.47329700733425 77.09557627999249 H 0.0 **** 0.06
3256 C 88.60778382006256 25.868417303116857 54.37969006207288 C 0.0 **** -0.24
3257 H 88.89886815605155 26.532360683163795 55.19316099467761 H 0.0 **** 0.06
3258 H 89.05241099889355 24.885792701177166 54.537352549403636 H 0.0 **** 0.06
3259 H 88.9598213646542 26.27899396584364 53.43252094596798 H 0.0 **** 0.06
3260 H 87.52204622369368 25.77757821924297 54.354810122674735 H 0.0 **** 0.06
3261 C 95.12964888093228 29.749600718755033 47.70053611050096 C 0.0 **** -0.24
3262 H 94.16270737090727 29.65246156541562 48.19396998467033 H 0.0 **** 0.06
3263 H 95.81190429078961 30.305548938024998 48.34469765115901 H 0.0 **** 0.06
3264 H 95.00409459007315 30.283097967776825 46.75830964893183 H 0.0 **** 0.06
3265 H 95.53932934696022 28.758901806061175 47.504846418999875 H 0.0 **** 0.06
3266 C 75.30542953168293 17.460480488261908 67.291606483227 C 0.0 **** -0.24
3267 H 75.8602939690868 17.39907565452171 66.35548427265016 H 0.0 **** 0.06
3268 H 74.2517418096325 17.640606752348674 67.07718019023652 H 0.0 **** 0.06
3269 H 75.69916811645766 18.28046454079663 67.89317196472292 H 0.0 **** 0.06
3270 H 75.41079221450588 16.524416359218606 67.83919438217916 H 0.0 **** 0.06
3271 C 38.2731909245384 3.680198652959632 102.02613590113393 C 0.0 **** -0.24
3272 H 38.03543904416486 4.088110309588643 103.00848767763074 H 0.0 **** 0.06
3273 H 38.09669900251521 4.43957440448068 101.26454942979305 H 0.0 **** 0.06
3274 H 37.64102728533831 2.813802940219148 101.83003764534644 H 0.0 **** 0.06
3275 H 39.32067111000626 3.378181724969977 102.00272712318122 H 0.0 **** 0.06
3276 C 104.41131722121912 136.30094838881044 1.5367160837164704 C 0.0 **** -0.24
3277 H 105.16379197987415 137.00431934250085 1.8934904401258166 H 0.0 **** 0.06
3278 H 104.86097408442691 135.6242780634274 0.810496526786153 H 0.0 **** 0.06
3279 H 103.5949951261121 136.85066121632846 1.0663640721914476 H 0.0 **** 0.06
3280 H 104.02433050696635 135.72630265448677 2.378381380274618 H 0.0 **** 0.06
3281 C 34.90262965104438 31.5867760878576 76.57012072008314 C 0.0 **** -0.24
3282 H 34.071443173835604 31.21448148541652 75.97156942770988 H 0.0 **** 0.06
3283 H 34.611513112736986 32.51635767362053 77.05800910967037 H 0.0 **** 0.06
3284 H 35.76302215331768 31.767157625627483 75.92523300498607 H 0.0 **** 0.06
3285 H 35.1656802236208 30.845546321965855 77.32580702782815 H 0.0 **** 0.06
3286 C 62.19410035334673 114.9961162095547 113.07503524299318 C 0.0 **** -0.24
3287 H 62.94013150976761 114.21809632254492 112.91464994570742 H 0.0 **** 0.06
3288 H 61.19636135054651 114.5698727123479 112.96927007506088 H 0.0 **** 0.06
3289 H 62.33154002812594 115.78739476430714 112.33807290881765 H 0.0 **** 0.06
3290 H 62.308998777594894 115.40927885491466 114.0765445168484 H 0.0 **** 0.06
3291 C 73.32399319208281 15.89205793589619 114.624516872509 C 0.0 **** -0.24
3292 H 73.5775495326589 14.831017506359586 114.64193484803805 H 0.0 **** 0.06
3293 H 73.82634792705613 16.370192229709573 113.78287783626392 H 0.0 **** 0.06
3294 H 73.64876352431025 16.35784371783609 115.55480216348796 H 0.0 **** 0.06
3295 H 72.24588312462305 16.00667361610104 114.5173965026775 H 0.0 **** 0.06
3296 C 110.34412741382485 35.263905348633074 30.365522199077105 C 0.0 **** -0.24
3297 H 111.43323332903819 35.24382066686431 30.34981390119475 H 0.0 **** 0.06
3298 H 109.98432968358739 36.00238289962715 29.649489818271064 H 0.0 **** 0.06
3299 H 109.99937211451632 35.528768670459925 31.365158687314505 H 0.0 **** 0.06
3300 H 109.95886547564865 34.28002864523717 30.097961430798165 H 0.0 **** 0.06
3301 C 79.84110872811559 74.84666243060028 32.534835556665996 C 0.0 **** -0.24
3302 H 80.03566713173252 74.45743424827016 31.535897466526592 H 0.0 **** 0.06
3303 H 79.21609605100183 74.1424891202963 33.08357317847583 H 0.0 **** 0.06
3304 H 79.32807202136175 75.80560402889273 32.457341849492764 H 0.0 **** 0.06
3305 H 80.78622578324753 74.98225248793848 33.06149106451619 H 0.0 **** 0.06
3306 C 30.67244331062821 10.922873388917992 13.770360044965912 C 0.0 **** -0.24
3307 H 30.921414344156958 9.875434623707179 13.94318189671344 H 0.0 **** 0.06
3308 H 31.413613430439796 11.557032851990186 14.255842779202567 H 0.0 **** 0.06
3309 H 29.686084080707417 11.133898920951253 14.182361926753572 H 0.0 **** 0.06
3310 H 30.66828170345974 11.123216461077618 12.698955719269861 H 0.0 **** 0.06
3311 C 42.913911278402594 105.1841991261733 6.041413459073425 C 0.0 **** -0.24
3312 H 43.10449314981068 105.0015321133884 7.099245787549336 H 0.0 **** 0.06
3313 H 42.655419768454124 106.23338474847192 5.8949839297415565 H 0.0 **** 0.06
3314 H 42.0871399212578 104.5558035256088 5.708858157028686 H 0.0 **** 0.06
3315 H 43.80707516646672 104.94491617106539 5.465456192684343 H 0.0 **** 0.06
3316 C 97.22586933098277 62.63358142167381 47.041200947857845 C 0.0 **** -0.24
3317 H 97.06720048607261 63.307570603649 47.88245812321935 H 0.0 **** 0.06
3318 H 97.64370909564829 61.69431317849657 47.40214824452303 H 0.0 **** 0.06
3319 H 97.91705537895993 63.09179198088958 46.33395995821601 H 0.0 **** 0.06
3320 H 96.27332915075938 62.44113155713627 46.54619467734611 H 0.0 **** 0.06
3321 C 122.06544693203 95.8944635319424 46.703341441522866 C 0.0 **** -0.24
3322 H 121.95226308500793 96.01794530204309 45.62647118544788 H 0.0 **** 0.06
3323 H 121.10741700032827 95.61248118847817 47.14042211630323 H 0.0 **** 0.06
3324 H 122.40361211623275 96.83275007144108 47.142972617060366 H 0.0 **** 0.06
3325 H 122.80042419419152 95.1137494745119 46.904147231316415 H 0.0 **** 0.06
3326 C 14.566069362919336 138.9600578080913 113.65519662567614 C 0.0 **** -0.24
3327 H 13.97007102690543 138.26226624259886 114.24380416227545 H 0.0 **** 0.06
3328 H 14.451994840635393 139.96657801971787 114.05972726104373 H 0.0 **** 0.06
3329 H 14.225979728917991 138.94479976365798 112.61943499514756 H 0.0 **** 0.06
3330 H 15.615488661362974 138.6671848515629 113.69812096099447 H 0.0 **** 0.06
3331 C 17.52361360810479 142.24593638336995 2.9795933736662157 C 0.0 **** -0.24
3332 H 18.162384627631873 142.72138602619884 3.723521523617375 H 0.0 **** 0.06
3333 H 16.65354784884083 141.81130117320603 3.471421283199703 H 0.0 **** 0.06
3334 H 18.08255734640975 141.46131811853525 2.469266038786717 H 0.0 **** 0.06
3335 H 17.196195839600414 142.99046130918816 2.252970227037121 H 0.0 **** 0.06
3336 C 131.40573235865457 3.8588284073723393 25.11711074639163 C 0.0 **** -0.24
3337 H 131.75740733176116 2.8296867571746134 25.190609577943604 H 0.0 **** 0.06
3338 H 132.17801362287253 4.4737976291081125 24.656207985348573 H 0.0 **** 0.06
3339 H 131.18524546162246 4.238062295185173 26.11517943320254 H 0.0 **** 0.06
3340 H 130.50262896050373 3.891076720433553 24.50772237263996 H 0.0 **** 0.06
3341 C 143.2026465246986 67.38667425577941 113.20525644054653 C 0.0 **** -0.24
3342 H 142.39018941189647 67.14562716414372 112.51925741306208 H 0.0 **** 0.06
3343 H 142.8733826639218 67.21775097931965 114.23098894741666 H 0.0 **** 0.06
3344 H 143.48339172259816 68.43301518653965 113.08119706862185 H 0.0 **** 0.06
3345 H 144.06096535370943 66.75200563139737 112.9893714366584 H 0.0 **** 0.06
3346 C 35.31161478614291 134.59335956930576 41.37538452642275 C 0.0 **** -0.24
3347 H 36.11008115258579 134.5411916249952 40.635588040646724 H 0.0 **** 0.06
3348 H 34.41414116346829 134.12138690129885 40.97493875696199 H 0.0 **** 0.06
3349 H 35.10102700756164 135.63722423129255 41.608099488926655 H 0.0 **** 0.06
3350 H 35.62217287166658 134.0742425070957 42.28160635732229 H 0.0 **** 0.06
3351 C 59.70285791076513 138.67706268143513 121.79867322147182 C 0.0 **** -0.24
3352 H 60.62363775161572 138.8372099108538 122.3597251379514 H 0.0 **** 0.06
3353 H 59.861289178744926 138.95331605093827 120.75606422440269 H 0.0 **** 0.06
3354 H 58.908182127536506 139.29125452719688 122.22145052156087 H 0.0 **** 0.06
3355 H 59.419677744281714 137.62643477101028 121.85705004625676 H 0.0 **** 0.06
3356 C 20.088291697432 24.94079565269834 41.75123999291446 C 0.0 **** -0.24
3357 H 19.700071159060883 23.925905442471446 41.66979959552265 H 0.0 **** 0.06
3358 H 19.52169804313411 25.600434698043216 41.094113786411924 H 0.0 **** 0.06
3359 H 21.138550686807378 24.952457119494966 41.461397066573 H 0.0 **** 0.06
3360 H 19.99247693558658 25.2850259177589 42.78121570666218 H 0.0 **** 0.06
3361 C 46.01769586920112 73.17988393623915 73.05763556224146 C 0.0 **** -0.24
3362 H 46.09229286983272 73.44992679721295 74.11115777369383 H 0.0 **** 0.06
3363 H 46.757325434700704 73.74030112168461 72.48624553884805 H 0.0 **** 0.06
3364 H 45.01920649536618 73.4168185192141 72.69221141569254 H 0.0 **** 0.06
3365 H 46.20221533485683 72.11159072856881 72.94410984131243 H 0.0 **** 0.06
3366 C 143.80124076136596 90.74502119913613 30.13714202166551 C 0.0 **** -0.24
3367 H 143.41769468046422 89.93043141443502 29.522945168733145 H 0.0 **** 0.06
3368 H 144.6379641302664 91.22234849386534 29.62580982915847 H 0.0 **** 0.06
3369 H 144.13776024291238 90.35000592431707 31.094968418760402 H 0.0 **** 0.06
3370 H 143.01065155115663 91.47771960226359 30.303421032381834 H 0.0 **** 0.06
3371 C 124.81673776753175 61.92745316148715 75.04039478225167 C 0.0 **** -0.24
3372 H 125.80557062096588 62.37553046858203 74.94452927208836 H 0.0 **** 0.06
3373 H 124.05571199095468 62.70016917080933 74.92956765762256 H 0.0 **** 0.06
3374 H 124.72147970997753 61.46207982796858 76.02129816532225 H 0.0 **** 0.06
3375 H 124.68283917480622 61.17203076173891 74.26576126559821 H 0.0 **** 0.06
3376 C 94.92184214648196 103.80368328327046 16.573127135780283 C 0.0 **** -0.24
3377 H 94.86643218561265 102.76901698195152 16.23462561242758 H 0.0 **** 0.06
3378 H 95.3760305898131 104.41654267454786 15.795564244196214 H 0.0 **** 0.06
3379 H 95.52649968259973 103.85748445843149 17.478721203774825 H 0.0 **** 0.06
3380 H 93.91706468672751 104.17023755539978 16.784643431988627 H 0.0 **** 0.06
3381 C 67.59565984008721 98.81209947637076 69.46032857011471 C 0.0 **** -0.24
3382 H 67.18041481371039 97.99479846846616 68.87080035158573 H 0.0 **** 0.06
3383 H 67.65843751043131 99.7092372752354 68.84372118314036 H 0.0 **** 0.06
3384 H 68.59331381372698 98.53994152302351 69.80757138849737 H 0.0 **** 0.06
3385 H 66.95227365442628 99.00499286021612 70.31802501873014 H 0.0 **** 0.06
3386 C 42.09923733420543 23.180947802484866 83.24477076257915 C 0.0 **** -0.24
3387 H 42.28789829616359 23.43243894218176 84.28885753190546 H 0.0 **** 0.06
3388 H 42.34680323902883 24.035346275786836 82.61464595072123 H 0.0 **** 0.06
3389 H 41.045905607270925 22.928014642118768 83.11651295265891 H 0.0 **** 0.06
3390 H 42.71466776012457 22.327997606606544 82.96054865729084 H 0.0 **** 0.06
3391 C 129.71775888906862 14.251415044209217 118.60329648147854 C 0.0 **** -0.24
3392 H 129.21535201160899 15.158693851219226 118.26663429547267 H 0.0 **** 0.06
3393 H 129.073126293068 13.716773714384757 119.30114558653344 H 0.0 **** 0.06
3394 H 130.6510254116706 14.517043111893123 119.09951035621486 H 0.0 **** 0.06
3395 H 129.93151047194127 13.615086661374072 117.74383479077255 H 0.0 **** 0.06
3396 C 59.6928626978559 111.16502856784649 2.387159430633176 C 0.0 **** -0.24
3397 H 60.4221643822699 111.32930530487653 1.594936587897962 H 0.0 **** 0.06
3398 H 59.02743578322816 110.34905787701928 2.105237901681761 H 0.0 **** 0.06
3399 H 59.109847032388416 112.07372558733306 2.539558217509807 H 0.0 **** 0.06
3400 H 60.212063027724525 110.90804899836314 3.3103178150997508 H 0.0 **** 0.06
3401 C 72.77431234551733 117.59432040504078 53.44205161357709 C 0.0 **** -0.24
3402 H 72.08372736252336 118.38221638200224 53.744106646816704 H 0.0 **** 0.06
3403 H 72.21743620533495 116.78389517574965 52.97262454582861 H 0.0 **** 0.06
3404 H 73.29837455303573 117.21604231735057 54.319573905833295 H 0.0 **** 0.06
3405 H 73.49684353795458 117.99791980335289 52.73257356118822 H 0.0 **** 0.06
3406 C 89.65922334536657 49.990818887704734 93.11180137830078 C 0.0 **** -0.24
3407 H 88.89271176010871 50.62521198177288 93.55616413542452 H 0.0 **** 0.06
3408 H 89.18960472776006 49.27207807039329 92.43954850213214 H 0.0 **** 0.06
3409 H 90.19252120135972 49.45920917429683 93.89928684748634 H 0.0 **** 0.06
3410 H 90.36046229949663 50.608861439124155 92.55075214057324 H 0.0 **** 0.06
3411 C 132.58672558514922 25.027675320644732 63.05697259073523 C 0.0 **** -0.24
3412 H 131.5680867078262 25.412959273717235 63.10827595982016 H 0.0 **** 0.06
3413 H 132.64140688915296 24.07487546188704 63.58506098308291 H 0.0 **** 0.06
3414 H 133.2685957041246 25.740471541527192 63.522383862219385 H 0.0 **** 0.06
3415 H 132.86882931660858 24.882693219958007 62.01438564030127 H 0.0 **** 0.06
3416 C 137.1839777698009 75.24813741666529 93.90719781245917 C 0.0 **** -0.24
3417 H 137.9313788807315 75.89062196989642 93.44315146252647 H 0.0 **** 0.06
3418 H 137.2490535852825 75.33908123348337 94.9918158520341 H 0.0 **** 0.06
3419 H 137.36468360555125 74.212676070242 93.61820108514095 H 0.0 **** 0.06
3420 H 136.18957945512398 75.54909434170182 93.57622673476833 H 0.0 **** 0.06
3421 C 130.3193371308752 74.29636304357727 12.282544295292688 C 0.0 **** -0.24
3422 H 130.57220672194745 73.67053402976205 13.138341530076886 H 0.0 **** 0.06
3423 H 129.25217813410356 74.2122382600052 12.07459324687683 H 0.0 **** 0.06
3424 H 130.88673499347652 73.96841474618024 11.412489466236728 H 0.0 **** 0.06
3425 H 130.56500515114746 75.33498226921093 12.506750180412311 H 0.0 **** 0.06
3426 C 139.17072813825718 103.74430584204772 128.66032802161396 C 0.0 **** -0.24
3427 H 138.3144588655191 103.10728694299108 128.44096825356894 H 0.0 **** 0.06
3428 H 139.72903853362087 103.32709928608026 129.49900384350548 H 0.0 **** 0.06
3429 H 138.82381765404133 104.744545290849 128.91631235912445 H 0.0 **** 0.06
3430 H 139.81740800708718 103.79744971262348 127.78402110678695 H 0.0 **** 0.06
3431 C 120.9937712654712 74.08238614024519 55.90262312221027 C 0.0 **** -0.24
3432 H 120.1610987448064 74.65882980800093 55.49989237412905 H 0.0 **** 0.06
3433 H 120.75171134559815 73.02005065896718 55.864032446270286 H 0.0 **** 0.06
3434 H 121.17259252013366 74.37704394981556 56.936821189350056 H 0.0 **** 0.06
3435 H 121.88915826990365 74.27330696851324 55.31053843773215 H 0.0 **** 0.06
3436 C 74.2163117011141 35.650295734871435 90.7100023703263 C 0.0 **** -0.24
3437 H 73.59731130976537 34.97236640659031 91.29902130658206 H 0.0 **** 0.06
3438 H 74.25814574590699 35.29958335795092 89.67863451460973 H 0.0 **** 0.06
3439 H 75.22270846244345 35.677314149402264 91.12656499012722 H 0.0 **** 0.06
3440 H 73.78520065423331 36.651035776656045 90.73708611222983 H 0.0 **** 0.06
3441 C 57.81531539563119 73.76274185597417 10.762479439383128 C 0.0 **** -0.24
3442 H 57.625688408259364 73.20745619691994 9.844457493232142 H 0.0 **** 0.06
3443 H 57.2794406989583 74.711143893466 10.730561399410249 H 0.0 **** 0.06
3444 H 58.88496790209666 73.95285766979217 10.85702804520281 H 0.0 **** 0.06
3445 H 57.47391666728268 73.1801159493087 11.617628445067908 H 0.0 **** 0.06
3446 C 129.5525845123729 131.49807503634878 73.85204125193354 C 0.0 **** -0.24
3447 H 130.62735428272018 131.66986208325136 73.9155634743569 H 0.0 **** 0.06
3448 H 129.3536913437319 130.70183322276148 73.13479765759175 H 0.0 **** 0.06
3449 H 129.0570867607802 132.41298887635935 73.52715274567348 H 0.0 **** 0.06
3450 H 129.17307597899614 131.20836099072972 74.83148032843408 H 0.0 **** 0.06
3451 C 53.75019553920116 56.56468267893706 65.33007729874808 C 0.0 **** -0.24
3452 H 53.2910867099949 57.18038905565527 66.10371846224649 H 0.0 **** 0.06
3453 H 53.24566334363884 55.59933412340607 65.28806145223581 H 0.0 **** 0.06
3454 H 54.804180527780304 56.413772626381345 65.56605346385832 H 0.0 **** 0.06
3455 H 53.661586844660704 57.0653462875479 64.36683212204446 H 0.0 **** 0.06
3456 C 123.98977892474574 38.52411884450666 43.48302489815168 C 0.0 **** -0.24
3457 H 123.63309866431285 39.19224696402469 42.69910149225427 H 0.0 **** 0.06
3458 H 123.16783662022317 38.286104030249476 44.15889894993127 H 0.0 **** 0.06
3459 H 124.78894997138849 39.01261032772916 44.04049472161819 H 0.0 **** 0.06
3460 H 124.36801343525644 37.60618344889377 43.03333817223728 H 0.0 **** 0.06
3461 C 112.94432447096779 24.711482252477822 142.53673657441146 C 0.0 **** -0.24
3462 H 112.68313641023582 25.59093881164589 141.94765518859126 H 0.0 **** 0.06
3463 H 112.61819989063895 23.81297709173134 142.01234535139417 H 0.0 **** 0.06
3464 H 112.45138779696458 24.764955561767948 143.507036993485 H 0.0 **** 0.06
3465 H 114.02449907951171 24.677860520782886 142.6793174164485 H 0.0 **** 0.06
3466 C 115.39503601740905 139.51915219444132 118.55777057465325 C 0.0 **** -0.24
3467 H 115.52066506513405 138.5899313081897 119.112991933434 H 0.0 **** 0.06
3468 H 115.15963202048867 140.32663713111998 119.25179505261578 H 0.0 **** 0.06
3469 H 114.58180983299427 139.40723572665158 117.84049881021333 H 0.0 **** 0.06
3470 H 116.31749851168244 139.75322749588992 118.02652525498071 H 0.0 **** 0.06
3471 C 133.72821646258532 75.62740323991538 111.71013403653158 C 0.0 **** -0.24
3472 H 133.7703714467463 75.59021196377974 110.62203770828886 H 0.0 **** 0.06
3473 H 134.21690859962817 76.53679563088556 112.062028108944 H 0.0 **** 0.06
3474 H 134.2372461428806 74.75698096147809 112.12396097340572 H 0.0 **** 0.06
3475 H 132.68678635181354 75.6271707807992 112.03360306920705 H 0.0 **** 0.06
3476 C 129.70419471261195 46.13063125771657 141.02156928073114 C 0.0 **** -0.24
3477 H 130.46881266868704 46.394031628660855 141.75310504108148 H 0.0 **** 0.06
3478 H 128.71959536348785 46.20645364088762 141.48380841472152 H 0.0 **** 0.06
3479 H 129.86735393284445 45.1085786145602 140.6790574146031 H 0.0 **** 0.06
3480 H 129.7625472032914 46.812467325696275 140.17400370968932 H 0.0 **** 0.06
3481 C 66.0117707354739 23.31646661513733 66.81510573972687 C 0.0 **** -0.24
3482 H 66.52032779023347 23.505316369250522 67.76035881459612 H 0.0 **** 0.06
3483 H 65.24535247405339 22.55493828761277 66.96110428340263 H 0.0 **** 0.06
3484 H 66.73428279182215 22.969953216198377 66.07605926136144 H 0.0 **** 0.06
3485 H 65.54687869587005 24.238070927105895 66.46325089525526 H 0.0 **** 0.06
3486 C 12.049092486741785 79.0009551332875 81.10090872751903 C 0.0 **** -0.24
3487 H 12.210624175043819 77.93151185828532 81.2323752525578 H 0.0 **** 0.06
3488 H 11.00743916099205 79.23983210222639 81.31437071523118 H 0.0 **** 0.06
3489 H 12.283193314680602 79.27981796613187 80.07356739442815 H 0.0 **** 0.06
3490 H 12.696179720282231 79.5517323965039 81.7833919906023 H 0.0 **** 0.06
3491 C 130.4831573384932 0.5882023274582764 127.63899963973077 C 0.0 **** -0.24
3492 H 131.17195741763558 0.37012874380454264 128.4543230115325 H 0.0 **** 0.06
3493 H 130.53065529483104 1.65064198380432 127.39843394747444 H 0.0 **** 0.06
3494 H 129.46882227904672 0.328713281479196 127.9410835531926 H 0.0 **** 0.06
3495 H 130.76281850948814 0.004693225725560524 126.76145722856731 H 0.0 **** 0.06
3496 C 20.539167687861607 36.81567380557408 43.5934291661945 C 0.0 **** -0.24
3497 H 20.0966393516847 36.37091224703687 42.70180046101835 H 0.0 **** 0.06
3498 H 20.437097382197067 37.90031870481681 43.546311919457196 H 0.0 **** 0.06
3499 H 21.59574741283643 36.55116915588502 43.645009297986036 H 0.0 **** 0.06
3500 H 20.02698839597673 36.44060767201313 44.47966597350194 H 0.0 **** 0.06
3501 C 28.090864607619807 119.83224224660778 140.95483481382618 C 0.0 **** -0.24
3502 H 28.00235044755118 119.78735844601253 142.04005164008018 H 0.0 **** 0.06
3503 H 27.430463327936877 120.60924516162923 140.56847026882903 H 0.0 **** 0.06
3504 H 27.808515929004898 118.86965055371975 140.52733230528847 H 0.0 **** 0.06
3505 H 29.120726005384512 120.06278315608104 140.68365175388507 H 0.0 **** 0.06
3506 C 81.86237235043014 8.50479071372871 80.63586686066533 C 0.0 **** -0.24
3507 H 82.13825297840219 7.979429892663234 81.55038082906825 H 0.0 **** 0.06
3508 H 81.89160786652573 7.811487456615282 79.79593964558761 H 0.0 **** 0.06
3509 H 82.56534102778393 9.319741351233517 80.45966116167034 H 0.0 **** 0.06
3510 H 80.85590798686955 8.909005606702806 80.73894281708334 H 0.0 **** 0.06
3511 C 102.68998859155397 130.34137752140248 93.67569852249353 C 0.0 **** -0.24
3512 H 103.77226618464638 130.33078238619703 93.80769808369993 H 0.0 **** 0.06
3513 H 102.2322907858273 130.92199869361835 94.47575077567456 H 0.0 **** 0.06
3514 H 102.3117382262298 129.31939352009107 93.7042864409791 H 0.0 **** 0.06
3515 H 102.44711588323736 130.79163740958506 92.71327877445334 H 0.0 **** 0.06
3516 C 121.83035923948576 116.17255467042196 104.80712772140748 C 0.0 **** -0.24
3517 H 122.71063368169017 116.71009485704099 104.45568310621019 H 0.0 **** 0.06
3518 H 121.85963173565527 115.14776823198429 104.4381768680268 H 0.0 **** 0.06
3519 H 120.93114058654113 116.66679397394341 104.43752349877713 H 0.0 **** 0.06
3520 H 121.82028133180388 116.16652702676419 105.89705432381885 H 0.0 **** 0.06
3521 C 31.181205084951472 23.694552598135694 104.94873671708612 C 0.0 **** -0.24
3522 H 30.959850299708023 22.758009235773415 105.46142036532588 H 0.0 **** 0.06
3523 H 30.66030855546208 24.51279678169071 105.44642555326861 H 0.0 **** 0.06
3524 H 30.84893579920916 23.628505517087426 103.91190892308771 H 0.0 **** 0.06
3525 H 32.25588279113768 23.877234350754286 104.97473940706533 H 0.0 **** 0.06
3526 C 102.08029807020189 15.555609219561433 47.038045405926496 C 0.0 **** -0.24
3527 H 101.12669716520787 15.552448279622382 47.567223329968385 H 0.0 **** 0.06
3528 H 102.8917627626961 15.692090307344188 47.75355634481957 H 0.0 **** 0.06
3529 H 102.0921474972982 16.371328892856127 46.31493274772458 H 0.0 **** 0.06
3530 H 102.21066136433174 14.606334247080042 46.51845389890032 H 0.0 **** 0.06
3531 C 100.31063324291603 79.51243132760803 59.8452991585969 C 0.0 **** -0.24
3532 H 99.32728305713249 79.1241200480622 59.58268042572347 H 0.0 **** 0.06
3533 H 100.19966800148063 80.32412740588555 60.56549230221343 H 0.0 **** 0.06
3534 H 100.80474441478793 79.88742724551199 58.94901064045861 H 0.0 **** 0.06
3535 H 100.90998560200458 78.71582184378573 60.28547520620229 H 0.0 **** 0.06
3536 C 134.34145279310144 15.487359234813113 43.246383316638116 C 0.0 **** -0.24
3537 H 133.85363827611457 14.8131797366851 42.54191974339244 H 0.0 **** 0.06
3538 H 134.08179576876938 16.517861707589873 43.001567402733826 H 0.0 **** 0.06
3539 H 135.42159182595867 15.358401837234112 43.18322065716313 H 0.0 **** 0.06
3540 H 134.00615082718778 15.258295741752931 44.2577405178464 H 0.0 **** 0.06
3541 C 124.16860636976796 54.36395226196768 91.37084795830958 C 0.0 **** -0.24
3542 H 123.9116329580171 55.19673542056556 92.02518866187654 H 0.0 **** 0.06
3543 H 123.98415936281567 53.42374742732386 91.88980463556754 H 0.0 **** 0.06
3544 H 125.22187996953198 54.42892623166048 91.09763373777537 H 0.0 **** 0.06
3545 H 123.55648022637698 54.408683910056126 90.46992256063652 H 0.0 **** 0.06
3546 C 52.21994239345918 68.76725546122671 63.60768238515806 C 0.0 **** -0.24
3547 H 51.85191979621726 68.74317496248622 62.58192783465492 H 0.0 **** 0.06
3548 H 51.46854566554322 68.34173409310935 64.27345671233763 H 0.0 **** 0.06
3549 H 52.41940870365784 69.79992278627535 63.896703758140404 H 0.0 **** 0.06
3550 H 53.13869533111182 68.18653486351448 63.677205325706694 H 0.0 **** 0.06
3551 C 128.80149519710113 12.192760539847143 122.22546767420782 C 0.0 **** -0.24
3552 H 129.48049184056185 11.397178242344921 121.91784081389083 H 0.0 **** 0.06
3553 H 127.87499501913311 12.118891564213982 121.65461238396334 H 0.0 **** 0.06
3554 H 129.26728410382736 13.159551843374004 122.03977954900931 H 0.0 **** 0.06
3555 H 128.58315693228695 12.092356974744007 123.28885539373005 H 0.0 **** 0.06
3556 C 63.66929907189703 4.928300903354959 10.057739793233878 C 0.0 **** -0.24
3557 H 62.87702874798178 4.187653437113923 9.94936102958053 H 0.0 **** 0.06
3558 H 63.3837115219644 5.843893619144183 9.538084421294457 H 0.0 **** 0.06
3559 H 64.59160750607273 4.539135647092284 9.628264084650368 H 0.0 **** 0.06
3560 H 63.822759034297164 5.143247278635982 11.115576274584924 H 0.0 **** 0.06
3561 C 127.34383934801829 87.36598953134092 35.58289506555428 C 0.0 **** -0.24
3562 H 127.53588428617428 87.73013955737997 34.573198856432334 H 0.0 **** 0.06
3563 H 126.45521573089945 87.8546958146569 35.98265892168395 H 0.0 **** 0.06
3564 H 128.20011452313938 87.59113330481512 36.21819969818142 H 0.0 **** 0.06
3565 H 127.18475871653345 86.28820640554238 35.556765366594924 H 0.0 **** 0.06
3566 C 63.65917276958422 96.24315156267583 75.21391181643524 C 0.0 **** -0.24
3567 H 64.05189635158956 96.58357966744565 74.25533066218014 H 0.0 **** 0.06
3568 H 64.32814801311625 96.56309762936868 76.01418966320169 H 0.0 **** 0.06
3569 H 63.58855708804023 95.15538376376493 75.21155741399706 H 0.0 **** 0.06
3570 H 62.66992538913976 96.67156690243543 75.37331002716112 H 0.0 **** 0.06
3571 C 133.09346212696886 111.54868136646189 86.12921795168835 C 0.0 **** -0.24
3572 H 133.5498426463011 112.53436339746253 86.21866425325095 H 0.0 **** 0.06
3573 H 132.51677861038274 111.3316713182383 87.02844687938702 H 0.0 **** 0.06
3574 H 133.8736318964824 110.79686085907503 86.00673535408644 H 0.0 **** 0.06
3575 H 132.43341948932974 111.531785665857 85.26103351425843 H 0.0 **** 0.06
3576 C 134.20245857648655 85.55143219556733 34.41047360579489 C 0.0 **** -0.24
3577 H 133.2691158740032 85.74880719807426 33.88401718125073 H 0.0 **** 0.06
3578 H 134.38682215574795 86.34606585922879 35.13356994537543 H 0.0 **** 0.06
3579 H 135.02303430872757 85.51350980443051 33.694097132915545 H 0.0 **** 0.06
3580 H 134.13064522361105 84.59536481067964 34.930041638963075 H 0.0 **** 0.06
3581 C 133.12190755005443 128.12099583245947 0.04512961625107437 C 0.0 **** -0.24
3582 H 132.2303672588777 128.1261710947894 -0.58266817089185 H 0.0 **** 0.06
3583 H 132.82795497547497 128.03233259069424 1.0918233086221676 H 0.0 **** 0.06
3584 H 133.67416817868792 129.04862651064343 -0.10106328793597186 H 0.0 **** 0.06
3585 H 133.75233226677614 127.27438772264344 -0.22777385676977246 H 0.0 **** 0.06
3586 C 93.95853481730832 64.74039539250113 6.384000626914297 C 0.0 **** -0.24
3587 H 94.54815120920229 63.842720254792326 6.568880950812638 H 0.0 **** 0.06
3588 H 94.62652296023708 65.58696366430011 6.22308161575393 H 0.0 **** 0.06
3589 H 93.31995373553067 64.93863935582654 7.245283660558556 H 0.0 **** 0.06
3590 H 93.33915401711015 64.59167334383277 5.499356583444111 H 0.0 **** 0.06
3591 C 120.37013179199307 129.13128165807873 61.71953348267013 C 0.0 **** -0.24
3592 H 119.84449047331945 128.47984700456564 61.02035392449949 H 0.0 **** 0.06
3593 H 121.3166168162707 128.6714091477207 62.00235716390807 H 0.0 **** 0.06
3594 H 119.75645710844434 129.2782901203046 62.60874370876925 H 0.0 **** 0.06
3595 H 120.56043618162282 130.09428069121688 61.24571601025255 H 0.0 **** 0.06
3596 C 18.202557561336334 6.444926186869651 14.270722583843451 C 0.0 **** -0.24
3597 H 17.513841177731365 5.607988938019531 14.387887848284521 H 0.0 **** 0.06
3598 H 18.002397053207574 6.950858548888107 13.32625759772398 H 0.0 **** 0.06
3599 H 19.227991485897917 6.075031669466085 14.276128163257056 H 0.0 **** 0.06
3600 H 18.065992595805426 7.145870670745893 15.094616245957184 H 0.0 **** 0.06
3601 C 52.011782857106 60.80659769925353 74.02132464028824 C 0.0 **** -0.24
3602 H 51.821758196892404 61.381051242692706 73.11487296675648 H 0.0 **** 0.06
3603 H 51.22255903867628 60.06637531309343 74.15546080308314 H 0.0 **** 0.06
3604 H 52.030461533239105 61.47824846167441 74.87992424490272 H 0.0 **** 0.06
3605 H 52.97396221840057 60.300821694635715 73.93567160390438 H 0.0 **** 0.06
3606 C 43.39488503960297 2.2128498588181458 93.51134270530487 C 0.0 **** -0.24
3607 H 43.57923694464071 3.1156792994981117 92.92859207422799 H 0.0 **** 0.06
3608 H 42.33069958881873 2.1394775062234714 93.74052128385733 H 0.0 **** 0.06
3609 H 43.96355019464784 2.258576022520259 94.44036906437368 H 0.0 **** 0.06
3610 H 43.70413119170183 1.340230982559035 92.9375405321596 H 0.0 **** 0.06
3611 C 89.50060668153989 52.351471090380144 46.11457148373492 C 0.0 **** -0.24
3612 H 88.45235959287012 52.26642116784096 46.39837842983039 H 0.0 **** 0.06
3613 H 90.11924361085224 51.839599881049836 46.851193556233994 H 0.0 **** 0.06
3614 H 89.78114584872964 53.404050777556094 46.07250383508304 H 0.0 **** 0.06
3615 H 89.64972244315712 51.89689487097304 45.13530092070965 H 0.0 **** 0.06
3616 C 34.423236859331894 9.367488190374857 78.59844124189925 C 0.0 **** -0.24
3617 H 33.701548579145836 9.025994644393034 79.3409741445335 H 0.0 **** 0.06
3618 H 34.63977097739581 10.42305012943941 78.76135178375557 H 0.0 **** 0.06
3619 H 34.007447154855925 9.231308288873876 77.60004459841309 H 0.0 **** 0.06
3620 H 35.34145523465267 8.788460682579252 78.69191859020509 H 0.0 **** 0.06
3621 C 127.37522934948424 129.60322270577848 61.93061236694993 C 0.0 **** -0.24
3622 H 127.66287666406748 130.59204622830595 61.57085127894206 H 0.0 **** 0.06
3623 H 126.55614067766606 129.22106234482936 61.32095334258287 H 0.0 **** 0.06
3624 H 127.05436793397791 129.6731500497488 62.969683100417484 H 0.0 **** 0.06
3625 H 128.22848846312115 128.92846051363932 61.85856526531555 H 0.0 **** 0.06
3626 C 38.0370428942137 28.08010268015901 58.59223397620923 C 0.0 **** -0.24
3627 H 38.86756618560713 27.527026103675986 58.15309700786935 H 0.0 **** 0.06
3628 H 37.49209537965925 27.43263739776493 59.279713315298636 H 0.0 **** 0.06
3629 H 37.366022817904366 28.416431287305436 57.800754287984375 H 0.0 **** 0.06
3630 H 38.422336274629345 28.943966319778227 59.1336815819173 H 0.0 **** 0.06
3631 C 106.82595462886454 114.13682021380045 3.8714810553964867 C 0.0 **** -0.24
3632 H 106.291961636416 113.4755675847524 3.188414162973629 H 0.0 **** 0.06
3633 H 107.097834758544 113.58566749651224 4.771765331609174 H 0.0 **** 0.06
3634 H 106.18351010873263 114.97681146839808 4.139849691796655 H 0.0 **** 0.06
3635 H 107.72773766835141 114.50973270434666 3.3856605854140867 H 0.0 **** 0.06
3636 C 43.7672381708019 49.657668322514695 54.91101078437366 C 0.0 **** -0.24
3637 H 43.65465120983268 49.363564657761884 53.86785016660693 H 0.0 **** 0.06
3638 H 44.77604239963742 50.03665078315569 55.074324022364834 H 0.0 **** 0.06
3639 H 43.594623998977085 48.79395016478273 55.55248732558873 H 0.0 **** 0.06
3640 H 43.04297022258925 50.437179334266176 55.147618945221154 H 0.0 **** 0.06
3641 C 79.29363770360565 96.83362752633047 108.05943471970944 C 0.0 **** -0.24
3642 H 78.73936427817954 95.89580926745776 108.02530598983024 H 0.0 **** 0.06
3643 H 79.76188212399808 96.94254227262826 109.03836305958525 H 0.0 **** 0.06
3644 H 78.61072610643932 97.66571927866698 107.88765006021934 H 0.0 **** 0.06
3645 H 80.06266824832765 96.82935309427893 107.28732098172843 H 0.0 **** 0.06
3646 C 83.70426367917801 143.23573663746464 142.75824120286077 C 0.0 **** -0.24
3647 H 83.05586212698833 142.38525588513187 142.54732221608816 H 0.0 **** 0.06
3648 H 84.11991669785496 143.13411685553254 143.76098090253984 H 0.0 **** 0.06
3649 H 83.1255488340473 144.1571372926127 142.69521861454328 H 0.0 **** 0.06
3650 H 84.5139099007695 143.2647944152849 142.02948437806705 H 0.0 **** 0.06
3651 C 122.24881692266261 98.39316816444048 52.53319103895373 C 0.0 **** -0.24
3652 H 121.20902587600101 98.09111470899967 52.65089025331733 H 0.0 **** 0.06
3653 H 122.6304608036089 98.7640157071711 53.48570668074396 H 0.0 **** 0.06
3654 H 122.31570746867776 99.18148349990767 51.78289941836201 H 0.0 **** 0.06
3655 H 122.84221441781112 97.53542896026931 52.21341009216536 H 0.0 **** 0.06
3656 C 15.142533538774671 132.13841479759543 136.57205798833317 C 0.0 **** -0.24
3657 H 14.811760621599682 132.04407833946073 135.53829410947313 H 0.0 **** 0.06
3658 H 16.021495988914552 132.78120175975832 136.6145174388785 H 0.0 **** 0.06
3659 H 15.393497369319562 131.1527885343924 136.96487085661894 H 0.0 **** 0.06
3660 H 14.342395957736016 132.575692017382 137.1704044095251 H 0.0 **** 0.06
3661 C 42.25142484366654 89.46291973653862 139.8025507376705 C 0.0 **** -0.24
3662 H 41.45425071056786 89.55658351172409 139.06599229646943 H 0.0 **** 0.06
3663 H 42.05528149978164 88.60356436021515 140.44340719817725 H 0.0 **** 0.06
3664 H 42.2924056509475 90.36746341676604 140.41012562257015 H 0.0 **** 0.06
3665 H 43.2046543878331 89.3261044367361 139.29044433027707 H 0.0 **** 0.06
3666 C 42.74879533577733 45.56595665606653 24.168556207471923 C 0.0 **** -0.24
3667 H 42.396334723076265 46.49625380521957 24.614771018056544 H 0.0 **** 0.06
3668 H 42.36902711948032 45.484252786511206 23.150396862480164 H 0.0 **** 0.06
3669 H 42.390167875344986 44.72214180269657 24.7593081019144 H 0.0 **** 0.06
3670 H 43.83852623176736 45.5611759920173 24.153174347759347 H 0.0 **** 0.06
3671 C 134.17787498126555 91.06184505404482 117.86732756140407 C 0.0 **** -0.24
3672 H 133.39072442534567 91.64725690155322 117.38979644653409 H 0.0 **** 0.06
3673 H 133.98241447885405 89.99973877283898 117.71543486847855 H 0.0 **** 0.06
3674 H 134.19479324738597 91.28007455703258 118.93511806147683 H 0.0 **** 0.06
3675 H 135.14038535096518 91.3211062268565 117.42667200819017 H 0.0 **** 0.06
3676 C 77.28424099603117 20.528575386071367 82.9258556910626 C 0.0 **** -0.24
3677 H 76.37387470735888 21.116516863848375 82.81339284673005 H 0.0 **** 0.06
3678 H 78.1511078263317 21.188617549842434 82.88630620139446 H 0.0 **** 0.06
3679 H 77.34624814536537 19.797804442489138 82.11840233990601 H 0.0 **** 0.06
3680 H 77.26521853876945 20.00921609859398 83.88425957057923 H 0.0 **** 0.06
3681 C 49.60309906383689 9.202349219897656 1.0395674731707913 C 0.0 **** -0.24
3682 H 49.6395838002269 10.290272549233151 1.086520073738626 H 0.0 **** 0.06
3683 H 50.38774062290892 8.841195187583281 0.3757103889327311 H 0.0 **** 0.06
3684 H 48.63118528700534 8.887584004356 0.659847370674612 H 0.0 **** 0.06
3685 H 49.75274773947845 8.791122361350716 2.03764092812213 H 0.0 **** 0.06
3686 C 55.085373302875894 75.25786060764 84.26925511944927 C 0.0 **** -0.24
3687 H 54.31657648940791 75.8238860492373 84.79374676531486 H 0.0 **** 0.06
3688 H 54.758864181426816 74.2244832077448 84.15231991713517 H 0.0 **** 0.06
3689 H 56.01108682744251 75.28458993587533 84.84295700432835 H 0.0 **** 0.06
3690 H 55.25343720435313 75.6989430757653 83.28643076803326 H 0.0 **** 0.06
3691 C 64.56432826790845 62.33893952433698 139.12694469814772 C 0.0 **** -0.24
3692 H 65.37700677982417 63.06520567738289 139.11453478636622 H 0.0 **** 0.06
3693 H 64.43772018581646 61.95327003681872 140.1384679701046 H 0.0 **** 0.06
3694 H 64.80039397600342 61.51765777074348 138.45084771863458 H 0.0 **** 0.06
3695 H 63.64195118186946 62.82123493901062 138.80333762021468 H 0.0 **** 0.06
3696 C 66.96620853115601 93.2767662054598 13.87507421208619 C 0.0 **** -0.24
3697 H 66.63596577843472 93.77455680022285 14.78671676139868 H 0.0 **** 0.06
3698 H 67.69392119248872 93.90474554470777 13.361059494535368 H 0.0 **** 0.06
3699 H 66.10913043586626 93.10496868391624 13.22368518868683 H 0.0 **** 0.06
3700 H 67.42485987618042 92.32095288442254 14.129669506892697 H 0.0 **** 0.06
3701 C 53.84168781481219 86.24682422573699 122.39372747225374 C 0.0 **** -0.24
3702 H 52.81690793463214 86.52751626648677 122.1488987426666 H 0.0 **** 0.06
3703 H 54.51155354010669 86.59665125449645 121.60899133547926 H 0.0 **** 0.06
3704 H 53.910686822831124 85.16149505304477 122.47476864162266 H 0.0 **** 0.06
3705 H 54.12492159181434 86.70065962707454 123.3431788572876 H 0.0 **** 0.06
3706 C 53.516671800002925 95.91908604388894 140.69485230260162 C 0.0 **** -0.24
3707 H 54.33063582764841 95.23653717809756 140.45064234868025 H 0.0 **** 0.06
3708 H 52.80954613992573 95.41727283143697 141.3562030009897 H 0.0 **** 0.06
3709 H 53.00720897832004 96.21954095625645 139.77850442255942 H 0.0 **** 0.06
3710 H 53.919012638200215 96.8009066531558 141.19330706729838 H 0.0 **** 0.06
3711 C 67.80261938381794 84.75484428917105 58.53586606419573 C 0.0 **** -0.24
3712 H 68.64207756636564 85.08121741832554 59.15049072589565 H 0.0 **** 0.06
3713 H 66.94189908930993 85.39688850766163 58.72696226248972 H 0.0 **** 0.06
3714 H 67.54951340096282 83.72459321879245 58.78339572063183 H 0.0 **** 0.06
3715 H 68.0773637146023 84.81887364069001 57.48281017341168 H 0.0 **** 0.06
3716 C 93.66930726719474 32.97989060765417 127.29167458725445 C 0.0 **** -0.24
3717 H 92.8351551924155 33.31660047987418 126.67693754585413 H 0.0 **** 0.06
3718 H 94.21284428404687 32.19422739005205 126.76645678869619 H 0.0 **** 0.06
3719 H 93.29077364233885 32.590805062710274 128.23643783425678 H 0.0 **** 0.06
3720 H 94.33872423285504 33.81809719124067 127.48548777873366 H 0.0 **** 0.06
3721 C 83.63755602771256 58.49342643876611 97.24776036665413 C 0.0 **** -0.24
3722 H 83.87378185398885 58.717428265816324 98.28774421873737 H 0.0 **** 0.06
3723 H 84.51768666942671 58.668050517054695 96.62936133957297 H 0.0 **** 0.06
3724 H 82.82405718605807 59.13822254656385 96.91298943535092 H 0.0 **** 0.06
3725 H 83.33229209567033 57.450462556080396 97.16095492456061 H 0.0 **** 0.06
3726 C 16.949221218852273 39.051379825855236 49.340647117693365 C 0.0 **** -0.24
3727 H 17.267505540792996 38.22854295384633 48.700603786867205 H 0.0 **** 0.06
3728 H 15.928009739113378 38.87528055833707 49.6781112540929 H 0.0 **** 0.06
3729 H 16.992407735795894 39.98441315589764 48.78025479593346 H 0.0 **** 0.06
3730 H 17.610904006051356 39.115649599228846 50.20486827786618 H 0.0 **** 0.06
3731 C 121.74281796518856 29.22404278515586 32.78147506342973 C 0.0 **** -0.24
3732 H 120.8234328972981 29.792854010597154 32.926726095315715 H 0.0 **** 0.06
3733 H 121.70033387089042 28.308923440725138 33.37254579177436 H 0.0 **** 0.06
3734 H 122.59474267583305 29.824370267485676 33.10193119289415 H 0.0 **** 0.06
3735 H 121.85135778036495 28.972682076839078 31.72692409126516 H 0.0 **** 0.06
3736 C 85.54640976484305 92.18810076293451 49.3608103850126 C 0.0 **** -0.24
3737 H 84.55712666498005 92.0433433131314 48.926124122651856 H 0.0 **** 0.06
3738 H 86.30779338146411 91.96029384972672 48.61425835622367 H 0.0 **** 0.06
3739 H 85.66744877834526 91.52602073659392 50.217410895129376 H 0.0 **** 0.06
3740 H 85.65254025616291 93.224442359991 49.68418846928745 H 0.0 **** 0.06
3741 C 61.81656915535925 141.23757802120824 31.937961904445586 C 0.0 **** -0.24
3742 H 62.656906224358764 141.51170524054857 32.575605822122014 H 0.0 **** 0.06
3743 H 61.69629214764831 140.1537092744874 31.943151172641166 H 0.0 **** 0.06
3744 H 62.006832166119736 141.57682917288142 30.920418550393578 H 0.0 **** 0.06
3745 H 60.90704930198052 141.70585764907986 32.31335595555913 H 0.0 **** 0.06
3746 C 94.81403452727106 135.96702313246092 25.178488118713922 C 0.0 **** -0.24
3747 H 95.9031900524979 135.91692729892864 25.189469018297736 H 0.0 **** 0.06
3748 H 94.407209599201 135.13951217159556 25.7598158999509 H 0.0 **** 0.06
3749 H 94.45828338485036 135.90044622617987 24.150505375275458 H 0.0 **** 0.06
3750 H 94.4907890399959 136.9123217433744 25.614963557649794 H 0.0 **** 0.06
3751 C 1.2087864705622628 93.28013938355329 84.31838633247503 C 0.0 **** -0.24
3752 H 2.0335048881568767 93.08396035322247 85.00358865164486 H 0.0 **** 0.06
3753 H 0.9787645235658751 92.37358090608046 83.75804130009448 H 0.0 **** 0.06
3754 H 1.4926954444002973 94.07314128411551 83.62701845064419 H 0.0 **** 0.06
3755 H 0.33148663491344976 93.58868375662557 84.88626680534321 H 0.0 **** 0.06
3756 C 129.67423580139595 16.283912992319813 113.06991267648706 C 0.0 **** -0.24
3757 H 128.7389357309104 15.722951740559722 113.06627830733535 H 0.0 **** 0.06
3758 H 130.43694619471844 15.711961758800783 113.59864942818885 H 0.0 **** 0.06
3759 H 129.52199947346205 17.2390937722908 113.57137715864351 H 0.0 **** 0.06
3760 H 129.99571979889598 16.45885283450815 112.0435389839848 H 0.0 **** 0.06
3761 C 135.566140138866 43.31309831746982 140.55486335483948 C 0.0 **** -0.24
3762 H 136.13665371485493 43.47962053779051 139.64174427273394 H 0.0 **** 0.06
3763 H 135.37413196592388 44.26817942190985 141.0433158309125 H 0.0 **** 0.06
3764 H 136.1356154584815 42.67011336402825 141.22628879798845 H 0.0 **** 0.06
3765 H 134.61851343231316 42.83289279652304 140.3099364267673 H 0.0 **** 0.06
3766 C 145.30642208291738 14.950777169057716 40.31923046912446 C 0.0 **** -0.24
3767 H 144.30417591892868 14.619309343653725 40.04771508590014 H 0.0 **** 0.06
3768 H 145.31340167589792 16.036454676542178 40.42621468588365 H 0.0 **** 0.06
3769 H 146.00922877386162 14.657310056664102 39.53951725157378 H 0.0 **** 0.06
3770 H 145.59748265339152 14.490179444925417 41.263619904169516 H 0.0 **** 0.06
3771 C 94.40245763901201 62.209112062413084 103.28931178392094 C 0.0 **** -0.24
3772 H 95.35030948950731 62.65213831683414 102.98311165461575 H 0.0 **** 0.06
3773 H 94.58283247160442 61.46134463692786 104.06142232158511 H 0.0 **** 0.06
3774 H 93.92692384069254 61.73707183324839 102.42933995719783 H 0.0 **** 0.06
3775 H 93.7489051592384 62.98790429072628 103.68290642048193 H 0.0 **** 0.06
3776 C 77.85013380883301 40.15801942695606 67.5835522110166 C 0.0 **** -0.24
3777 H 77.86957427725635 40.218259219252964 68.67241960384001 H 0.0 **** 0.06
3778 H 77.63594349261366 41.14338992020524 67.16920161781039 H 0.0 **** 0.06
3779 H 77.07596566263985 39.45656505547272 67.273288899809 H 0.0 **** 0.06
3780 H 78.81836478187752 39.81324424686768 67.22232278421855 H 0.0 **** 0.06
3781 C 134.64046817845656 90.11239857245607 53.38429821882502 C 0.0 **** -0.24
3782 H 134.82689870347787 91.11832793316674 53.761284566243006 H 0.0 **** 0.06
3783 H 133.57508140759126 89.99111503854883 53.18632027437606 H 0.0 **** 0.06
3784 H 134.95770587636554 89.38182709277567 54.12861230881819 H 0.0 **** 0.06
3785 H 135.20140410714112 89.96042317012868 52.461966785873855 H 0.0 **** 0.06
3786 C 126.61561906697993 124.13611834561945 12.899174138517537 C 0.0 **** -0.24
3787 H 126.68214035232118 124.96668558469908 13.601522949818843 H 0.0 **** 0.06
3788 H 125.58220382263099 124.01883521795236 12.5722758097657 H 0.0 **** 0.06
3789 H 126.95007121268105 123.22020917487015 13.38680316582554 H 0.0 **** 0.06
3790 H 127.24873882132007 124.34012238907712 12.035295297817584 H 0.0 **** 0.06
3791 C 24.55258317295187 21.04574612466007 78.73557870311197 C 0.0 **** -0.24
3792 H 24.177710354549788 21.811923263981328 78.05659499320893 H 0.0 **** 0.06
3793 H 23.764169446449444 20.762107910708266 79.43413016125828 H 0.0 **** 0.06
3794 H 25.405089970524216 21.438264343376204 79.29061432310561 H 0.0 **** 0.06
3795 H 24.86222651584518 20.172116492718033 78.16226801133962 H 0.0 **** 0.06
3796 C 80.33474856289435 29.66258415844203 26.6804670173467 C 0.0 **** -0.24
3797 H 81.07066722228296 29.843852100127776 27.46422947076752 H 0.0 **** 0.06
3798 H 79.71258500933557 30.548946606988594 26.554074592737038 H 0.0 **** 0.06
3799 H 79.70770441375292 28.815658067779665 26.960411226954022 H 0.0 **** 0.06
3800 H 80.84742672563166 29.441908196458257 25.74442796882346 H 0.0 **** 0.06
3801 C 82.92001785340253 97.02004463871452 41.63797707188138 C 0.0 **** -0.24
3802 H 83.13604264786758 96.43500810820187 42.53159914861777 H 0.0 **** 0.06
3803 H 82.58277975470465 98.01596833800869 41.928742329969396 H 0.0 **** 0.06
3804 H 82.13821703090422 96.52522987889246 41.06114195333265 H 0.0 **** 0.06
3805 H 83.82102448828878 97.10376256901893 41.03138726782356 H 0.0 **** 0.06
3806 C 141.22214365582803 39.28310754318966 87.302643895984 C 0.0 **** -0.24
3807 H 140.29024655739474 39.83966042251919 87.39775198560127 H 0.0 **** 0.06
3808 H 141.00339788992525 38.259164306679 86.9994600568725 H 0.0 **** 0.06
3809 H 141.741672542661 39.27611123085171 88.2602589726271 H 0.0 **** 0.06
3810 H 141.85270685856457 39.75716831210886 86.5507401031349 H 0.0 **** 0.06
3811 C 16.373831797191997 25.572965305373224 39.53135276955308 C 0.0 **** -0.24
3812 H 15.984378499473905 24.950180239930006 38.72526416368939 H 0.0 **** 0.06
3813 H 17.456714108327446 25.653219138506174 39.435539797653945 H 0.0 **** 0.06
3814 H 16.126298181734967 25.11983513487182 40.49181885306655 H 0.0 **** 0.06
3815 H 15.927675101440002 26.56523960311889 39.47158003758133 H 0.0 **** 0.06
3816 C 102.779686552382 13.067205333021633 107.47927422465972 C 0.0 **** -0.24
3817 H 103.71006964876159 12.94313932626497 108.03402447907985 H 0.0 **** 0.06
3818 H 102.44409431104012 14.100559923131925 107.56050222937347 H 0.0 **** 0.06
3819 H 102.01955233726153 12.404325416081946 107.8931161070168 H 0.0 **** 0.06
3820 H 102.94620433780446 12.81918537440194 106.43169570215679 H 0.0 **** 0.06
3821 C 76.19263484254856 52.95161243812059 50.49253123555758 C 0.0 **** -0.24
3822 H 75.1676424747209 52.607225116231234 50.357235672934834 H 0.0 **** 0.06
3823 H 76.34761453828267 53.23172525679239 51.53512274678262 H 0.0 **** 0.06
3824 H 76.37144938383207 53.816439729259216 49.85361260738283 H 0.0 **** 0.06
3825 H 76.88336918332887 52.15237684671267 50.223930354136044 H 0.0 **** 0.06
3826 C 34.35146558406154 93.23727407909007 105.74596542472902 C 0.0 **** -0.24
3827 H 34.77452997782251 94.19455686049724 105.44035109111384 H 0.0 **** 0.06
3828 H 34.1490903147012 92.63164558751095 104.86254407558033 H 0.0 **** 0.06
3829 H 33.42210711649062 93.40825626170198 106.29026945442497 H 0.0 **** 0.06
3830 H 35.05929281431821 92.71670867550523 106.39065538790094 H 0.0 **** 0.06
3831 C 43.89696368380004 3.6315989525870407 3.872585538931162 C 0.0 **** -0.24
3832 H 43.7464809923858 3.9205694164279805 4.913101256480388 H 0.0 **** 0.06
3833 H 43.951427714822245 4.526648886623661 3.2515402470879167 H 0.0 **** 0.06
3834 H 43.06339507516947 3.0115761110065193 3.5447244581072823 H 0.0 **** 0.06
3835 H 44.82624345315102 3.069218474597818 3.7827902402972313 H 0.0 **** 0.06
3836 C 17.187247304951484 15.617234627198457 39.32645674684585 C 0.0 **** -0.24
3837 H 16.339906109852734 15.984809846459171 39.904265715173835 H 0.0 **** 0.06
3838 H 17.015776921575537 15.810870200675964 38.26730421067447 H 0.0 **** 0.06
3839 H 17.297936300167976 14.544641046876563 39.48597118652259 H 0.0 **** 0.06
3840 H 18.094550282425303 16.12823678759551 39.64719800706638 H 0.0 **** 0.06
3841 C 45.83116174819524 139.5813736893275 136.14111128304017 C 0.0 **** -0.24
3842 H 45.72535802923636 139.08491847432515 135.17676141475178 H 0.0 **** 0.06
3843 H 45.2435005920686 139.04967030212472 136.88951075683667 H 0.0 **** 0.06
3844 H 45.474863217729364 140.60874902462388 136.06191405420594 H 0.0 **** 0.06
3845 H 46.88011968996176 139.58269569456985 136.43601185823027 H 0.0 **** 0.06
3846 C 108.35951169537132 137.07538904478676 109.57710562552036 C 0.0 **** -0.24
3847 H 107.45219347144833 137.37732238730487 109.05193243015417 H 0.0 **** 0.06
3848 H 108.87355510688077 136.30732493731966 109.00019337415263 H 0.0 **** 0.06
3849 H 108.09583990698577 136.67983465595873 110.55764771098562 H 0.0 **** 0.06
3850 H 109.01368082593437 137.9388526164238 109.69688164399527 H 0.0 **** 0.06
3851 C 12.265165672796513 89.94115618130289 65.93822796587168 C 0.0 **** -0.24
3852 H 12.915619882949692 90.49087011047823 66.61902958309673 H 0.0 **** 0.06
3853 H 12.721819957484456 88.9814215245643 65.69582920036163 H 0.0 **** 0.06
3854 H 12.124967283340588 90.51904885740181 65.02460749086944 H 0.0 **** 0.06
3855 H 11.298962858405382 89.77558571635886 66.41389633833685 H 0.0 **** 0.06
3856 C 71.08570379020773 74.7327899150767 42.447991143408274 C 0.0 **** -0.24
3857 H 70.30237534957772 74.5982867379784 41.70149574295557 H 0.0 **** 0.06
3858 H 72.01759414349121 74.3054541427891 42.07825828351602 H 0.0 **** 0.06
3859 H 70.79581198654219 74.23217975515863 43.371383839617636 H 0.0 **** 0.06
3860 H 71.22397695340251 75.79704360128204 42.639643268146244 H 0.0 **** 0.06
3861 C 62.376308573425945 51.13528638290464 40.73220990570414 C 0.0 **** -0.24
3862 H 62.42852662686147 52.20135133559482 40.5122629440792 H 0.0 **** 0.06
3863 H 63.37972585723037 50.70938761554375 40.70336665480332 H 0.0 **** 0.06
3864 H 61.75008262280869 50.64173574992569 39.98936691792514 H 0.0 **** 0.06
3865 H 61.94777512591162 50.98977115321232 41.72399179390442 H 0.0 **** 0.06
3866 C 92.4738127218962 42.119513479813605 92.54692602424319 C 0.0 **** -0.24
3867 H 92.39545934839413 42.432019760257475 91.50554546104016 H 0.0 **** 0.06
3868 H 92.62104439351742 42.99538308994309 93.17894276821872 H 0.0 **** 0.06
3869 H 93.32051850800707 41.44230519097343 92.6593010383381 H 0.0 **** 0.06
3870 H 91.5575119911739 41.60811448022321 92.84325686545671 H 0.0 **** 0.06
3871 C 119.65060487228602 7.223662027788038 61.61486048715432 C 0.0 **** -0.24
3872 H 119.02522098249533 6.335398327074756 61.5292365637176 H 0.0 **** 0.06
3873 H 120.38477087928386 7.22936574048984 60.80781108537545 H 0.0 **** 0.06
3874 H 120.16582951738123 7.21385784185145 62.57532565413456 H 0.0 **** 0.06
3875 H 119.02725701286083 8.114757273585468 61.544628149988625 H 0.0 **** 0.06
3876 C 20.897223970958244 106.14719005004687 46.69153341099451 C 0.0 **** -0.24
3877 H 20.387722328889517 105.27578702480835 46.280395070563 H 0.0 **** 0.06
3878 H 20.158196190992264 106.8713160496861 47.034275834292686 H 0.0 **** 0.06
3879 H 21.520431566072503 106.6008688099507 45.92099219483916 H 0.0 **** 0.06
3880 H 21.521396754498525 105.84009914007683 47.53001796989528 H 0.0 **** 0.06
3881 C 111.6468261703467 120.97042289557368 121.37614428720104 C 0.0 **** -0.24
3882 H 112.52686571360884 121.09118890537599 120.74392367840494 H 0.0 **** 0.06
3883 H 110.79260649129377 121.46184292300819 120.90777146535788 H 0.0 **** 0.06
3884 H 111.83543424328418 121.4203725288171 122.35044259012574 H 0.0 **** 0.06
3885 H 111.4328139227435 119.909591825583 121.50067152403187 H 0.0 **** 0.06
3886 C 117.72283274422695 81.56377495311006 115.3865385545988 C 0.0 **** -0.24
3887 H 118.60704971975333 81.91702706836014 114.85644878984327 H 0.0 **** 0.06
3888 H 118.00790177987143 81.22044796365626 116.38175721649218 H 0.0 **** 0.06
3889 H 117.27316967339677 80.73960729755308 114.8323655540441 H 0.0 **** 0.06
3890 H 117.00341608997324 82.37783828436686 115.47462069251263 H 0.0 **** 0.06
3891 C 45.53638988783351 31.321890104477603 143.30706257956803 C 0.0 **** -0.24
3892 H 45.892872660618266 32.23936507306777 142.83896472148228 H 0.0 **** 0.06
3893 H 44.91283819627664 30.77316529684265 142.60159163889315 H 0.0 **** 0.06
3894 H 44.95274002507034 31.570039421634306 144.19334505930914 H 0.0 **** 0.06
3895 H 46.38888354077049 30.706318163861255 143.5946450305073 H 0.0 **** 0.06
3896 C 126.13464060388313 35.961728139535126 133.3611664735557 C 0.0 **** -0.24
3897 H 126.7869744453167 36.06986221714614 134.2268947314564 H 0.0 **** 0.06
3898 H 126.70861925445692 35.57155129937044 132.5201108983938 H 0.0 **** 0.06
3899 H 125.71823685531652 36.934945614203755 133.0970478302768 H 0.0 **** 0.06
3900 H 125.32452908794554 35.27277502945307 133.60045885632388 H 0.0 **** 0.06
3901 C 73.00578952349235 33.02228336887703 55.642798658060144 C 0.0 **** -0.24
3902 H 73.47615349165744 32.29649060867496 56.30756597304773 H 0.0 **** 0.06
3903 H 73.77493302369737 33.54569196319858 55.07413122303163 H 0.0 **** 0.06
3904 H 72.43719000225758 33.74001310527564 56.23274563487121 H 0.0 **** 0.06
3905 H 72.33592952923419 32.50380337604929 54.9570304983549 H 0.0 **** 0.06
3906 C 33.137048459669046 84.40180461077072 49.28130593596629 C 0.0 **** -0.24
3907 H 32.97286210689279 85.19511270421127 48.551736181138466 H 0.0 **** 0.06
3908 H 32.20776205163972 83.85272818207613 49.43471638266172 H 0.0 **** 0.06
3909 H 33.46266468966249 84.83875231028344 50.225361908325254 H 0.0 **** 0.06
3910 H 33.904020450750096 83.72134033180801 48.91148405463653 H 0.0 **** 0.06
3911 C 43.776215148814785 144.66854232959864 36.81414263581567 C 0.0 **** -0.24
3912 H 44.520875634026424 145.32861034830054 36.369764586780434 H 0.0 **** 0.06
3913 H 44.09483187523699 144.38716099692473 37.81834324712048 H 0.0 **** 0.06
3914 H 43.673544654091216 143.77268444707727 36.20080555727199 H 0.0 **** 0.06
3915 H 42.8176409133865 145.1849832653792 36.8670775343476 H 0.0 **** 0.06
3916 C 76.35628708659121 85.17222345596886 96.41890396117492 C 0.0 **** -0.24
3917 H 75.67201316896572 84.47375793096626 96.90116844980452 H 0.0 **** 0.06
3918 H 77.17894411018389 85.40202802212528 97.09647403458763 H 0.0 **** 0.06
3919 H 75.82146520634114 86.0898629242428 96.17154933603837 H 0.0 **** 0.06
3920 H 76.74901304878276 84.72358125428644 95.50674423517415 H 0.0 **** 0.06
3921 C 120.78903481085656 64.0691972136876 79.63264674887947 C 0.0 **** -0.24
3922 H 121.58751015917342 63.79939006944957 78.94122926775012 H 0.0 **** 0.06
3923 H 121.09622880374637 63.82993789382704 80.65128592673477 H 0.0 **** 0.06
3924 H 119.88742318839245 63.50936966821058 79.38335472439249 H 0.0 **** 0.06
3925 H 120.5872870323236 65.13732263589921 79.55498857578135 H 0.0 **** 0.06
3926 C 93.26206617386691 79.22893466821914 133.31535624214627 C 0.0 **** -0.24
3927 H 93.79903193094793 79.91862316688398 132.66368495069923 H 0.0 **** 0.06
3928 H 92.51993656154974 79.77939638386714 133.8945397046868 H 0.0 **** 0.06
3929 H 93.9664715960721 78.74557359508752 133.99196318091157 H 0.0 **** 0.06
3930 H 92.76224462105921 78.47179295738553 132.7105027245338 H 0.0 **** 0.06
3931 C 8.686225888053315 122.700456674832 11.074544664514171 C 0.0 **** -0.24
3932 H 9.71016273968317 122.52895988481211 11.408318722831694 H 0.0 **** 0.06
3933 H 7.9989818061686435 122.50000879471852 11.897041566786392 H 0.0 **** 0.06
3934 H 8.459999808763172 122.03582580085961 10.240995360634763 H 0.0 **** 0.06
3935 H 8.577949838334916 123.73638658694338 10.753768424372936 H 0.0 **** 0.06
3936 C 116.73226550148131 4.156187360863726 65.83763021569368 C 0.0 **** -0.24
3937 H 116.37647681753573 3.43232031677249 65.10391716122922 H 0.0 **** 0.06
3938 H 117.77879047359214 3.955626262008053 66.06571264986538 H 0.0 **** 0.06
3939 H 116.13915158944617 4.071398302482834 66.74809855212568 H 0.0 **** 0.06
3940 H 116.6338561303853 5.162613349715116 65.43202427759931 H 0.0 **** 0.06
3941 C 66.50259494713282 139.85506291502267 85.09019848024752 C 0.0 **** -0.24
3942 H 66.70473763172959 140.90134423861969 84.86095488905733 H 0.0 **** 0.06
3943 H 67.43842229650602 139.29651752772028 85.08987701368142 H 0.0 **** 0.06
3944 H 65.83093480943819 139.44270341290306 84.33726143376009 H 0.0 **** 0.06
3945 H 66.03586865022135 139.78281155104378 86.07245363591562 H 0.0 **** 0.06
3946 C 84.10001400886799 109.58279480223878 142.69082145275075 C 0.0 **** -0.24
3947 H 83.57870502176849 108.98142096338198 141.9459615008786 H 0.0 **** 0.06
3948 H 83.38620957202268 110.23392680077275 143.19601871082136 H 0.0 **** 0.06
3949 H 84.86262168664933 110.18828721745133 142.20125802385064 H 0.0 **** 0.06
3950 H 84.5723412383407 108.92523419387628 143.42084264729675 H 0.0 **** 0.06
3951 C 115.29055938354732 102.64553704773896 3.7677461916728703 C 0.0 **** -0.24
3952 H 114.99028275357468 103.39138360755801 4.50349325208542 H 0.0 **** 0.06
3953 H 116.05654823681205 103.06563908368047 3.116433499294832 H 0.0 **** 0.06
3954 H 114.42486481137853 102.35514711861077 3.171231683990598 H 0.0 **** 0.06
3955 H 115.68889455988348 101.7695477945902 4.279507663908078 H 0.0 **** 0.06
3956 C 128.2587291308252 87.20752541103457 111.39819264298026 C 0.0 **** -0.24
3957 H 128.18749273095125 87.95396651959695 110.60764036466875 H 0.0 **** 0.06
3958 H 128.14864524194266 87.69422544314796 112.36820841204187 H 0.0 **** 0.06
3959 H 129.22914207135796 86.71372343803009 111.34713155447443 H 0.0 **** 0.06
3960 H 127.46761918941006 86.4684894510915 111.27070611517948 H 0.0 **** 0.06
3961 C 74.28227412082624 98.93500811871195 3.8803283911581445 C 0.0 **** -0.24
3962 H 74.26148439300987 99.96066077489309 3.5127997732073197 H 0.0 **** 0.06
3963 H 73.56201651359873 98.33522267209077 3.3226866120903082 H 0.0 **** 0.06
3964 H 74.02311679973889 98.92311615631502 4.938450269388625 H 0.0 **** 0.06
3965 H 75.28143707088562 98.52204098929101 3.745998968798517 H 0.0 **** 0.06
3966 C 79.09416812428188 76.54035628848989 100.94559961280687 C 0.0 **** -0.24
3967 H 79.2635090057561 77.22239720366612 101.77967863501011 H 0.0 **** 0.06
3968 H 78.0236595539512 76.45090493512932 100.76286285890603 H 0.0 **** 0.06
3969 H 79.50547449782661 75.56133120301618 101.18904528284185 H 0.0 **** 0.06
3970 H 79.58566850519733 76.92948806016918 100.05364795668933 H 0.0 **** 0.06
3971 C 17.488523698788384 140.98078988067672 41.16529644670808 C 0.0 **** -0.24
3972 H 16.905179936761833 141.00092753196478 40.2447501813496 H 0.0 **** 0.06
3973 H 16.905961702983227 140.5013824880643 41.95340244610556 H 0.0 **** 0.06
3974 H 17.733205261244017 142.0004880995095 41.46244517262018 H 0.0 **** 0.06
3975 H 18.407818198422618 140.41903563606687 40.999867654868524 H 0.0 **** 0.06
3976 C 116.45557637243729 99.20024185202834 13.39461248386047 C 0.0 **** -0.24
3977 H 116.28560432118002 98.991697999525 12.338404240451723 H 0.0 **** 0.06
3978 H 117.52541930375162 99.30829228452905 13.575388971394418 H 0.0 **** 0.06
3979 H 116.0656276630283 98.3778695366097 13.994132843185504 H 0.0 **** 0.06
3980 H 115.94495339509155 100.12319954689559 13.668652894530773 H 0.0 **** 0.06
3981 C 10.02462442938024 137.30937093281756 118.80398514798145 C 0.0 **** -0.24
3982 H 10.938657808367658 137.16347175195733 119.38046962319163 H 0.0 **** 0.06
3983 H 10.28016215261006 137.54947816296942 117.77207726808541 H 0.0 **** 0.06
3984 H 9.450442792467562 138.12827195722627 119.23713459992808 H 0.0 **** 0.06
3985 H 9.431190308038296 136.39574206866484 118.82888720429122 H 0.0 **** 0.06
3986 C 67.96842507939915 134.64408403675336 118.86159116092453 C 0.0 **** -0.24
3987 H 67.03065120418226 134.18805032830574 119.17680418871866 H 0.0 **** 0.06
3988 H 68.18235526259093 135.5076257504182 119.49328142265425 H 0.0 **** 0.06
3989 H 67.88433869591785 134.9664009791928 117.8237885976343 H 0.0 **** 0.06
3990 H 68.77604295579093 133.9175283741297 118.95295388650881 H 0.0 **** 0.06
3991 C 31.05776543415567 76.33978344390627 113.56489246662066 C 0.0 **** -0.24
3992 H 30.032733914519298 76.10951161477527 113.27428075344564 H 0.0 **** 0.06
3993 H 31.072288780369348 76.69467531141225 114.59495008191904 H 0.0 **** 0.06
3994 H 31.455559967437154 77.11391790394865 112.90763733736686 H 0.0 **** 0.06
3995 H 31.668949709553686 75.4414377772263 113.48015330342945 H 0.0 **** 0.06
3996 C 71.98931788638512 90.16823021872398 40.06405981042792 C 0.0 **** -0.24
3997 H 71.46556263827836 89.9562091913007 39.13159723792768 H 0.0 **** 0.06
3998 H 73.03308791750095 89.8686403312633 39.97049746837112 H 0.0 **** 0.06
3999 H 71.52275722673843 89.613362760673 40.87754928005714 H 0.0 **** 0.06
4000 H 71.93554321578537 91.23697146045873 40.275713815422165 H 0.0 **** 0.06
4001 C 101.81764527824936 10.612423251750982 93.95646231114509 C 0.0 **** -0.24
4002 H 101.49546550518087 10.53597649300503 92.91809533733542 H 0.0 **** 0.06
4003 H 102.23691065724591 11.602413366604551 94.13489435254483 H 0.0 **** 0.06
4004 H 102.57557025529607 9.854498209655688 94.1582773821468 H 0.0 **** 0.06
4005 H 100.96277377287001 10.455526967312053 94.61399265039465 H 0.0 **** 0.06
4006 C 80.11632642500712 118.84746670258669 33.87322028052789 C 0.0 **** -0.24
4007 H 80.58528545993478 119.82387189841346 33.99558130583554 H 0.0 **** 0.06
4008 H 79.06735850973963 118.97936907549676 33.604331720873375 H 0.0 **** 0.06
4009 H 80.18419539817725 118.29283960648623 34.808638606650504 H 0.0 **** 0.06
4010 H 80.6265916204663 118.29530038496524 33.08476886636461 H 0.0 **** 0.06
4011 C 126.271642882809 129.783665570826 21.832577930762838 C 0.0 **** -0.24
4012 H 125.30600418939613 130.03273895896916 21.393334002864833 H 0.0 **** 0.06
4013 H 127.01477450907672 130.51541738706808 21.51683669000093 H 0.0 **** 0.06
4014 H 126.57539573826747 128.79042913108685 21.501402011192084 H 0.0 **** 0.06
4015 H 126.18894733812525 129.79456250159214 22.919517033448614 H 0.0 **** 0.06
4016 C 119.29904634125599 24.520285921827337 31.698530494920846 C 0.0 **** -0.24
4017 H 119.75261323065807 24.784149563733166 32.65370426672146 H 0.0 **** 0.06
4018 H 119.93017981558667 23.793350210032656 31.186424114456173 H 0.0 **** 0.06
4019 H 119.20311914126056 25.415338735407687 31.0835578552375 H 0.0 **** 0.06
4020 H 118.31351686183935 24.090169177764295 31.870367706821185 H 0.0 **** 0.06
4021 C 142.61316025991655 105.44728789180631 58.864184758541484 C 0.0 **** -0.24
4022 H 142.64748817006904 106.3896154230308 59.40982773867344 H 0.0 **** 0.06
4023 H 141.59374248532606 105.06137098039949 58.867711392273634 H 0.0 **** 0.06
4024 H 143.27662600109187 104.72609194773351 59.342756144089435 H 0.0 **** 0.06
4025 H 142.93689645605093 105.61152716152203 57.835952647091574 H 0.0 **** 0.06
4026 C 7.334709762216903 0.9675501536775926 20.038372127886824 C 0.0 **** -0.24
4027 H 7.077024435709404 1.2344363348040588 21.063306240899053 H 0.0 **** 0.06
4028 H 7.5955326584916065 1.8684767296457494 19.482996021489704 H 0.0 **** 0.06
4029 H 6.481265304851547 0.48205861119899396 19.56470617907734 H 0.0 **** 0.06
4030 H 8.183808674528052 0.28363889107222917 20.044483290626054 H 0.0 **** 0.06
4031 C 28.671399050711727 38.83978494798378 20.530300240958695 C 0.0 **** -0.24
4032 H 28.51198724646946 39.300863415902256 19.55498415398523 H 0.0 **** 0.06
4033 H 27.724869443163016 38.44734487415231 20.90425138699041 H 0.0 **** 0.06
4034 H 29.05672185514328 39.5849039326231 21.225817963069673 H 0.0 **** 0.06
4035 H 29.389109395285175 38.02528234878031 20.433914241134943 H 0.0 **** 0.06
4036 C 66.73197157765316 81.4733058174217 63.23885199368459 C 0.0 **** -0.24
4037 H 66.94096149324795 81.34554328246372 64.3009503149828 H 0.0 **** 0.06
4038 H 67.40127620468286 82.22834193166386 62.82527645993096 H 0.0 **** 0.06
4039 H 65.6975931098743 81.79349582833265 63.10900403659386 H 0.0 **** 0.06
4040 H 66.88610487286718 80.52652894176578 62.72149007147979 H 0.0 **** 0.06
4041 C 19.77404280267669 81.36052298354971 99.51923892301974 C 0.0 **** -0.24
4042 H 20.770000194795998 81.37698646434634 99.96261207623441 H 0.0 **** 0.06
4043 H 19.333895935836992 82.35670180409778 99.57795393570893 H 0.0 **** 0.06
4044 H 19.14745927428622 80.65336036059469 100.06123516905153 H 0.0 **** 0.06
4045 H 19.84711810134266 81.0557926843671 98.47552616693717 H 0.0 **** 0.06
4046 C 129.19485364309685 56.346630230221706 47.684645131933564 C 0.0 **** -0.24
4047 H 129.09443697913233 55.29213673277107 47.43035043506434 H 0.0 **** 0.06
4048 H 130.01386492358998 56.78186200309014 47.11147870761013 H 0.0 **** 0.06
4049 H 129.40516622982426 56.44507707520543 48.75076981399248 H 0.0 **** 0.06
4050 H 128.26747741909458 56.867644104121126 47.44891704109702 H 0.0 **** 0.06
4051 C 70.06380862912516 70.12437688164226 88.31917018811744 C 0.0 **** -0.24
4052 H 69.40555643450723 69.35815943439245 87.90924851005119 H 0.0 **** 0.06
4053 H 69.4704142599665 70.97956605681709 88.64084773325648 H 0.0 **** 0.06
4054 H 70.77198783385855 70.44124426705315 87.55275892569125 H 0.0 **** 0.06
4055 H 70.60816621917249 69.71716158963767 89.17112113198264 H 0.0 **** 0.06
4056 C 90.99858947834939 38.46660961401676 128.474950903496 C 0.0 **** -0.24
4057 H 91.5276303138835 38.71489059421822 129.39496462029757 H 0.0 **** 0.06
4058 H 91.02120586906773 37.38705437338626 128.32289854399477 H 0.0 **** 0.06
4059 H 91.48078469193374 38.96266355553962 127.63291994356393 H 0.0 **** 0.06
4060 H 89.96300266561157 38.8008349996129 128.54897325067833 H 0.0 **** 0.06
4061 C 47.04613176082151 21.37539824849489 33.86664348766857 C 0.0 **** -0.24
4062 H 47.087352328830775 22.459954115474233 33.969557783251105 H 0.0 **** 0.06
4063 H 48.02482328439483 20.951310584236182 34.093135186696884 H 0.0 **** 0.06
4064 H 46.76628574465762 21.118430937824286 32.84413775083567 H 0.0 **** 0.06
4065 H 46.30581548528163 20.972658503070534 34.55703059184464 H 0.0 **** 0.06
4066 C 77.63665808752023 30.013998900124058 42.64204124394257 C 0.0 **** -0.24
4067 H 78.06199085524611 31.01356476542953 42.55596577999023 H 0.0 **** 0.06
4068 H 78.31329019537048 29.29095128343844 42.18493502501826 H 0.0 **** 0.06
4069 H 76.67406178911125 29.984035439090135 42.13189671760466 H 0.0 **** 0.06
4070 H 77.49899984298594 29.76748035363549 43.695096196979705 H 0.0 **** 0.06
4071 C 81.07000784141422 121.39447589371576 133.00520808681267 C 0.0 **** -0.24
4072 H 81.21676796471792 121.82182238339635 132.01289947926858 H 0.0 **** 0.06
4073 H 81.58724575981176 122.00647374963535 133.74420230893156 H 0.0 **** 0.06
4074 H 81.47135152779146 120.38099664995218 133.0268180310865 H 0.0 **** 0.06
4075 H 80.0046745338579 121.36851015822958 133.23518338568843 H 0.0 **** 0.06
4076 C 124.8801449063291 95.21651499834545 45.38264973212736 C 0.0 **** -0.24
4077 H 124.46027484521038 94.79312853680077 44.46989896834842 H 0.0 **** 0.06
4078 H 125.93737769992794 95.43358373669287 45.23001984732653 H 0.0 **** 0.06
4079 H 124.76996696841732 94.50070964202753 46.19747451435447 H 0.0 **** 0.06
4080 H 124.35236667563059 96.13701784962656 45.63305451878438 H 0.0 **** 0.06
4081 C 118.44440481025234 15.93804446346769 44.24797174054939 C 0.0 **** -0.24
4082 H 118.67877124876534 16.54940345315154 43.376897446069364 H 0.0 **** 0.06
4083 H 119.02126438662279 15.014422871366406 44.21068847028465 H 0.0 **** 0.06
4084 H 117.38010388675198 15.702003769150537 44.250262324149446 H 0.0 **** 0.06
4085 H 118.69640352518192 16.487910660139335 45.15558772557583 H 0.0 **** 0.06
4086 C 143.37055669400533 139.8591429949676 101.36095066489337 C 0.0 **** -0.24
4087 H 144.03264767859767 139.04548325602104 101.65723305989297 H 0.0 **** 0.06
4088 H 142.8193820179607 140.21511631579386 102.23163223089402 H 0.0 **** 0.06
4089 H 142.66916854275323 139.5003280249018 100.60764635883862 H 0.0 **** 0.06
4090 H 143.96289208536373 140.6762669598394 100.94766485404973 H 0.0 **** 0.06
4091 C 35.865490402608856 89.18657288902205 138.43811425656196 C 0.0 **** -0.24
4092 H 36.33305919453309 89.48207386225037 137.49819854119175 H 0.0 **** 0.06
4093 H 36.18972305092808 88.17971632036922 138.70362130392155 H 0.0 **** 0.06
4094 H 34.78151063930295 89.20142342271053 138.3239992379209 H 0.0 **** 0.06
4095 H 36.15846338835238 89.88190766264086 139.22380962679475 H 0.0 **** 0.06
4096 C 15.839120671601194 101.80546917852737 0.09342757257339684 C 0.0 **** -0.24
4097 H 14.772846324641847 101.67766955905329 -0.08911038186330345 H 0.0 **** 0.06
4098 H 16.138109889633682 102.81457399774187 -0.19293736451976784 H 0.0 **** 0.06
4099 H 16.398368076695107 101.07951062899217 -0.49623961621158585 H 0.0 **** 0.06
4100 H 16.047709567718414 101.65091412680756 1.1522615176891122 H 0.0 **** 0.06
4101 C 40.43084100669055 89.71199793454048 8.207168761261531 C 0.0 **** -0.24
4102 H 41.38922422141124 89.21148244405478 8.066417969040788 H 0.0 **** 0.06
4103 H 40.58131218860796 90.62897203476012 8.777443120924666 H 0.0 **** 0.06
4104 H 39.75366978653515 89.05358906255358 8.75053765788725 H 0.0 **** 0.06
4105 H 40.00097838489934 89.95465664196453 7.235364370933951 H 0.0 **** 0.06
4106 C 140.66444916903262 19.355690271074792 131.3267945632043 C 0.0 **** -0.24
4107 H 141.19987926720512 18.946138643010414 132.18305792725457 H 0.0 **** 0.06
4108 H 140.33521239276064 18.54079759538726 130.68116772038744 H 0.0 **** 0.06
4109 H 141.32665438903447 20.01718536095686 130.76759923135245 H 0.0 **** 0.06
4110 H 139.7978837555754 19.91753872853471 131.67415828490496 H 0.0 **** 0.06
4111 C 25.2123691317492 137.23131586473144 144.70953295599512 C 0.0 **** -0.24
4112 H 25.730415866179953 138.1012797313058 144.30579002630955 H 0.0 **** 0.06
4113 H 25.6728921899969 136.3226815196854 144.32251614879155 H 0.0 **** 0.06
4114 H 24.16403146321602 137.26350255080135 144.41286303068003 H 0.0 **** 0.06
4115 H 25.282366997058773 137.24016005987937 145.79757569716512 H 0.0 **** 0.06
4116 C 32.30627665116813 103.23056599921792 122.66084073219542 C 0.0 **** -0.24
4117 H 32.26302046185425 104.31176512647805 122.79751299932826 H 0.0 **** 0.06
4118 H 33.347656024394894 102.90930988368046 122.63462209196263 H 0.0 **** 0.06
4119 H 31.819493669483634 102.96391776934844 121.72349027225232 H 0.0 **** 0.06
4120 H 31.795290140537546 102.73906612232531 123.48902342559097 H 0.0 **** 0.06
4121 C 46.15307737898408 31.4243054660393 1.693444287956794 C 0.0 **** -0.24
4122 H 46.670261254243954 31.168387423451975 0.7694011961876299 H 0.0 **** 0.06
4123 H 46.299039569166624 30.62710523569575 2.4240384552907983 H 0.0 **** 0.06
4124 H 45.08780560482003 31.542340928893623 1.4925721493571587 H 0.0 **** 0.06
4125 H 46.55409552381204 32.35693433797712 2.088632437659072 H 0.0 **** 0.06
4126 C 55.637437577415824 53.059129295882414 55.469881105244625 C 0.0 **** -0.24
4127 H 55.79576177548876 53.77237775737261 54.66153963176268 H 0.0 **** 0.06
4128 H 54.5998806138046 52.724985889233864 55.46153642136589 H 0.0 **** 0.06
4129 H 55.858483458761384 53.53587251617381 56.42426439732729 H 0.0 **** 0.06
4130 H 56.2959021755359 52.20173035127502 55.331463949549075 H 0.0 **** 0.06
4131 C 12.75692180438142 10.094169155490292 112.4255709558352 C 0.0 **** -0.24
4132 H 13.101546677677504 10.504875085986 111.47641067293146 H 0.0 **** 0.06
4133 H 12.517281277542963 9.038141114095449 112.29895297036545 H 0.0 **** 0.06
4134 H 11.867386110808468 10.632776654261846 112.75207685641625 H 0.0 **** 0.06
4135 H 13.542649656011292 10.200966054064153 113.17406284080799 H 0.0 **** 0.06
4136 C 13.294258865135248 15.606885414240168 133.70153781420657 C 0.0 **** -0.24
4137 H 12.247101441212976 15.516561748990952 133.9906344571096 H 0.0 **** 0.06
4138 H 13.882223576226579 15.923066802694805 134.56330851115575 H 0.0 **** 0.06
4139 H 13.388708105618434 16.34525727475041 132.90555275424327 H 0.0 **** 0.06
4140 H 13.657527758088008 14.64184694937287 133.34773789360094 H 0.0 **** 0.06
4141 C 112.85090011319797 85.48708311490452 110.52458682939978 C 0.0 **** -0.24
4142 H 113.72200690994002 85.32780746666191 109.88886116256135 H 0.0 **** 0.06
4143 H 112.18601430194916 84.62635894818635 110.45204948259634 H 0.0 **** 0.06
4144 H 112.32259923399745 86.3837110008559 110.19890361562297 H 0.0 **** 0.06
4145 H 113.17381180761676 85.6115895860222 111.55838811150191 H 0.0 **** 0.06
4146 C 31.946890241486557 132.21426491402923 114.23112315337853 C 0.0 **** -0.24
4147 H 32.8889306035126 132.72316526724265 114.43290085515262 H 0.0 **** 0.06
4148 H 31.577018594269013 131.75775443294668 115.15085364275548 H 0.0 **** 0.06
4149 H 32.10575790714982 131.44087744493615 113.47957888486881 H 0.0 **** 0.06
4150 H 31.215929795703467 132.93493589691613 113.86396777246271 H 0.0 **** 0.06
4151 C 6.5072901430961565 101.48036554018759 101.14957127909977 C 0.0 **** -0.24
4152 H 6.370261346697902 102.22566569191234 100.36590763871774 H 0.0 **** 0.06
4153 H 5.862077173771496 101.72002231046679 101.9955723500758 H 0.0 **** 0.06
4154 H 7.54811781605585 101.48199817689134 101.47321612263647 H 0.0 **** 0.06
4155 H 6.248569632191845 100.49446641644448 100.76287821309012 H 0.0 **** 0.06
4156 C 76.40675014233405 91.01220011865674 109.68358306463351 C 0.0 **** -0.24
4157 H 77.16623697798458 90.9373501383334 110.46230326793916 H 0.0 **** 0.06
4158 H 76.84512865877532 91.456402794226 108.78990462247897 H 0.0 **** 0.06
4159 H 75.58652274447847 91.63756225669333 110.0365095752391 H 0.0 **** 0.06
4160 H 76.0290664925871 90.01685731232658 109.44887117772403 H 0.0 **** 0.06
4161 C 50.549778688888566 74.64980017612886 1.7582137038648682 C 0.0 **** -0.24
4162 H 50.31895087547933 73.74829572473854 2.3240282099461353 H 0.0 **** 0.06
4163 H 51.580508194195815 74.60344239240783 1.4053772255685146 H 0.0 **** 0.06
4164 H 50.42397755678326 75.5231561496782 2.3984069005605306 H 0.0 **** 0.06
4165 H 49.87682476007588 74.72493880485617 0.9045082167824319 H 0.0 **** 0.06
4166 C 136.2201398825279 98.17420028343058 59.81418046996258 C 0.0 **** -0.24
4167 H 136.20606945541684 99.26204015152715 59.74703629028777 H 0.0 **** 0.06
4168 H 135.41413546705323 97.83955682267384 60.46724749091837 H 0.0 **** 0.06
4169 H 137.17769370426416 97.84827755410161 60.22186049569282 H 0.0 **** 0.06
4170 H 136.084546727022 97.74734751361441 58.8200611920677 H 0.0 **** 0.06
4171 C 21.329842063048346 29.528925011788694 85.75886902030436 C 0.0 **** -0.24
4172 H 21.1977305168667 30.44867127121141 85.1898099589579 H 0.0 **** 0.06
4173 H 22.358894209192442 29.184538150220938 85.65728035750898 H 0.0 **** 0.06
4174 H 20.651968951202917 28.765474545104148 85.37761410683086 H 0.0 **** 0.06
4175 H 21.111761362925535 29.717620161158244 86.8099583784356 H 0.0 **** 0.06
4176 C 58.52711982054866 137.38133566073395 87.75399647712226 C 0.0 **** -0.24
4177 H 57.54207676323236 137.7593657238598 88.02952939372736 H 0.0 **** 0.06
4178 H 58.7568980260329 137.67774056895547 86.73064561144129 H 0.0 **** 0.06
4179 H 58.5309776297715 136.29369730598705 87.82775850380341 H 0.0 **** 0.06
4180 H 59.27570339917885 137.79440961439127 88.4302911194562 H 0.0 **** 0.06
4181 C 30.27773336919205 43.496612490430806 114.4180379883225 C 0.0 **** -0.24
4182 H 30.834693143930693 43.70557692246156 113.50407922588188 H 0.0 **** 0.06
4183 H 30.931442733999177 42.9992655437693 115.13585625102444 H 0.0 **** 0.06
4184 H 29.431093580379823 42.850024405236724 114.18784936565727 H 0.0 **** 0.06
4185 H 29.91495582578635 44.4323947223012 114.84348713181616 H 0.0 **** 0.06
4186 C 124.73894865306042 29.164335939485916 139.21060189668336 C 0.0 **** -0.24
4187 H 124.64257682120919 29.144865873767664 138.1253151800576 H 0.0 **** 0.06
4188 H 124.01113537160174 29.860285953985077 139.6282480601652 H 0.0 **** 0.06
4189 H 125.74516801271872 29.484861143653184 139.48040198184225 H 0.0 **** 0.06
4190 H 124.55731137837708 28.166299509088404 139.60932495612764 H 0.0 **** 0.06
4191 C 116.49023128275833 106.71297099411616 78.16691553704939 C 0.0 **** -0.24
4192 H 116.93400152527407 106.72947382206785 79.16255028032137 H 0.0 **** 0.06
4193 H 115.5315835432972 106.19599673904047 78.2048366435812 H 0.0 **** 0.06
4194 H 117.15811314472548 106.19061968713676 77.48109567892236 H 0.0 **** 0.06
4195 H 116.34040967241516 107.73487467078117 77.81901865229901 H 0.0 **** 0.06
4196 C 117.40053249455349 123.30685372348583 51.88830932960465 C 0.0 **** -0.24
4197 H 118.0835514593108 123.74177300115443 51.159180961635485 H 0.0 **** 0.06
4198 H 116.4046178362716 123.2260079623483 51.44939250305325 H 0.0 **** 0.06
4199 H 117.35724352516456 123.94340620304501 52.772175784813356 H 0.0 **** 0.06
4200 H 117.75375264976151 122.31511921885199 52.171079726963484 H 0.0 **** 0.06
4201 C 125.64112889427767 66.51298406669854 13.192262683758983 C 0.0 **** -0.24
4202 H 125.45646321322246 65.6868284137941 12.50553178625664 H 0.0 **** 0.06
4203 H 125.94792119254 66.11747505641233 14.160952541331916 H 0.0 **** 0.06
4204 H 124.72977151247434 67.09881800471621 13.310123606095424 H 0.0 **** 0.06
4205 H 126.43205314134316 67.14721703877298 12.79168151017572 H 0.0 **** 0.06
4206 C 114.98105030679713 42.47949737023603 40.366282172421506 C 0.0 **** -0.24
4207 H 114.33264845443736 41.69661053377544 40.760637555752 H 0.0 **** 0.06
4208 H 114.42934572547964 43.419666293972654 40.32527695202103 H 0.0 **** 0.06
4209 H 115.31121449264234 42.207621087133276 39.36471704513892 H 0.0 **** 0.06
4210 H 115.84791852129328 42.59498458825075 41.016434516956025 H 0.0 **** 0.06
4211 C 67.2832974934027 116.28485383791916 107.80918561947844 C 0.0 **** -0.24
4212 H 66.73478843230271 115.57504581173917 107.18974935569541 H 0.0 **** 0.06
4213 H 66.77593359943648 116.39880820557967 108.7663805385621 H 0.0 **** 0.06
4214 H 67.32691390881413 117.24998380182471 107.30344882709166 H 0.0 **** 0.06
4215 H 68.29547716978834 115.9152966288227 107.9740148485056 H 0.0 **** 0.06
4216 C 99.6589727825721 80.01704663233672 102.23624918083459 C 0.0 **** -0.24
4217 H 100.49709384963944 79.4596680552297 101.81826463183972 H 0.0 **** 0.06
4218 H 99.9486017673691 80.44068806565622 103.19768605695828 H 0.0 **** 0.06
4219 H 98.81012807180713 79.34624137014012 102.37465410214836 H 0.0 **** 0.06
4220 H 99.38029713847862 80.81979736847184 101.55353325133112 H 0.0 **** 0.06
4221 C 113.25787922092148 12.79023042257586 97.7483659327382 C 0.0 **** -0.24
4222 H 112.99166720205692 12.11021257657913 96.93847591850157 H 0.0 **** 0.06
4223 H 114.33551589661015 12.9552944886631 97.74401093905593 H 0.0 **** 0.06
4224 H 112.95995618359318 12.354346228481347 98.7019238629406 H 0.0 **** 0.06
4225 H 112.7432689412881 13.741332519926317 97.60627785195575 H 0.0 **** 0.06
4226 C 43.28265874184177 104.70282492473628 114.95549715614084 C 0.0 **** -0.24
4227 H 43.975809657592436 104.81863534228123 115.78879821730129 H 0.0 **** 0.06
4228 H 42.25965680159422 104.81739755648373 115.31513875276448 H 0.0 **** 0.06
4229 H 43.40595428171537 103.71250357851011 114.51639037425639 H 0.0 **** 0.06
4230 H 43.49108883890173 105.4625560522155 114.20232692560921 H 0.0 **** 0.06
4231 C 109.0706931664397 33.42480640498809 36.41429948060798 C 0.0 **** -0.24
4232 H 108.44777851247375 32.976462372996025 37.188325876436465 H 0.0 **** 0.06
4233 H 109.84334653164223 32.71599354612738 36.114332714153846 H 0.0 **** 0.06
4234 H 109.53940272547987 34.32907409490417 36.80408178369885 H 0.0 **** 0.06
4235 H 108.4534545292251 33.677128107938756 35.552510593681234 H 0.0 **** 0.06
4236 C 139.55636153403765 93.96723616347198 85.48329982908564 C 0.0 **** -0.24
4237 H 138.81697080446287 94.76709637129926 85.43633262084614 H 0.0 **** 0.06
4238 H 139.04859516726538 93.00307677687391 85.48920428407465 H 0.0 **** 0.06
4239 H 140.1487441158035 94.07241560488141 86.39199727116971 H 0.0 **** 0.06
4240 H 140.21163737107577 94.02726799345889 84.61344770368501 H 0.0 **** 0.06
4241 C 76.40263453091364 4.601066249075245 30.91007149687985 C 0.0 **** -0.24
4242 H 76.66788768827752 3.5529336576705077 31.048378142961226 H 0.0 **** 0.06
4243 H 75.61632398491041 4.872655011425934 31.614347837204917 H 0.0 **** 0.06
4244 H 76.04623423338913 4.7536685799341285 29.891071360591326 H 0.0 **** 0.06
4245 H 77.27904320670855 5.22379091395419 31.084933297175738 H 0.0 **** 0.06
4246 C 30.10807401025602 67.58338134745688 99.33830241622849 C 0.0 **** -0.24
4247 H 29.11853771887371 67.8648911603874 99.69746675224619 H 0.0 **** 0.06
4248 H 30.055626896503924 67.34972899003178 98.2744796798147 H 0.0 **** 0.06
4249 H 30.45752109359853 66.70837770536832 99.88713872736352 H 0.0 **** 0.06
4250 H 30.800686300531993 68.41050984097508 99.49553659723921 H 0.0 **** 0.06
4251 C 89.02104202453769 14.306347584091412 40.76910466513482 C 0.0 **** -0.24
4252 H 89.86511125139678 13.687769028987788 40.46418236939164 H 0.0 **** 0.06
4253 H 88.93544162366595 15.160742097289585 40.097203993395794 H 0.0 **** 0.06
4254 H 89.18057374871655 14.659484466846095 41.788525541431596 H 0.0 **** 0.06
4255 H 88.10466788346749 13.71763322232411 40.72802271792588 H 0.0 **** 0.06
4256 C 40.66058638897505 4.547727775737911 81.50851226634285 C 0.0 **** -0.24
4257 H 41.65503838736021 4.158351471288967 81.7255864333336 H 0.0 **** 0.06
4258 H 40.27167759980438 5.061212181079952 82.38761499053373 H 0.0 **** 0.06
4259 H 39.99676467389787 3.7232327460525596 81.24515386494792 H 0.0 **** 0.06
4260 H 40.718166789064924 5.247734358474986 80.67452413021095 H 0.0 **** 0.06
4261 C 42.37402929843191 4.161731861276792 27.318773947761542 C 0.0 **** -0.24
4262 H 41.79811078855451 3.2624473525930853 27.09936757206529 H 0.0 **** 0.06
4263 H 42.47054901478813 4.761039504398184 26.413789880182662 H 0.0 **** 0.06
4264 H 43.36438495041665 3.880943297405679 27.67659840635727 H 0.0 **** 0.06
4265 H 41.86228836817 4.742452254908017 28.08651606617292 H 0.0 **** 0.06
4266 C 35.63598038736373 102.52064079872333 45.248971956108534 C 0.0 **** -0.24
4267 H 34.56343598946481 102.35265623013898 45.1505107821512 H 0.0 **** 0.06
4268 H 35.84351523203591 103.589826757957 45.18880846600973 H 0.0 **** 0.06
4269 H 36.16000494880052 102.00368065010328 44.44448242746638 H 0.0 **** 0.06
4270 H 35.977713810713254 102.13756704310039 46.21006696882864 H 0.0 **** 0.06
4271 C 140.84796574872996 119.97806830764414 27.9756737312764 C 0.0 **** -0.24
4272 H 139.77822048171174 119.7728523853499 28.02541729437246 H 0.0 **** 0.06
4273 H 141.14788404909066 120.09090451715649 26.933421872396423 H 0.0 **** 0.06
4274 H 141.39792852096105 119.15243514195247 28.426117595040523 H 0.0 **** 0.06
4275 H 141.06598981890966 120.89834942513652 28.518423311199115 H 0.0 **** 0.06
4276 C 34.62527465706558 25.35496157828777 141.1451442070856 C 0.0 **** -0.24
4277 H 34.40757856835323 24.288486848992704 141.08824994945357 H 0.0 **** 0.06
4278 H 35.52012973235907 25.511547685796756 141.74746727696774 H 0.0 **** 0.06
4279 H 33.78265309712619 25.872924116370825 141.6036740661641 H 0.0 **** 0.06
4280 H 34.78937044482099 25.746653549374685 140.14090773049668 H 0.0 **** 0.06
4281 C 121.23269328629662 103.52008240597095 71.00558209719112 C 0.0 **** -0.24
4282 H 120.73596239188807 104.1866117261188 71.71119602486212 H 0.0 **** 0.06
4283 H 122.01294867872552 102.9606836046901 71.52310645765382 H 0.0 **** 0.06
4284 H 121.67863950841853 104.10834450573154 70.20293359890668 H 0.0 **** 0.06
4285 H 120.50430921625325 102.82667582347412 70.58602778269774 H 0.0 **** 0.06
4286 C 6.714768785044981 109.66242514659358 44.39466058462078 C 0.0 **** -0.24
4287 H 6.4377868617476395 108.6174226075873 44.250349571927416 H 0.0 **** 0.06
4288 H 7.754417758137691 109.72130643071345 44.71526136553548 H 0.0 **** 0.06
4289 H 6.073002379068157 110.10508056613956 45.15708959768797 H 0.0 **** 0.06
4290 H 6.591461792501519 110.20234014807947 43.45671762206835 H 0.0 **** 0.06
4291 C 93.5210746758857 18.570791212142296 91.73958766767228 C 0.0 **** -0.24
4292 H 92.53251305879445 18.651963477370145 91.28915362231294 H 0.0 **** 0.06
4293 H 94.14145384673321 19.40201126240521 91.40566585970797 H 0.0 **** 0.06
4294 H 93.98085823605146 17.629327531438435 91.43945752861538 H 0.0 **** 0.06
4295 H 93.4282880085583 18.599950235204687 92.82596759712516 H 0.0 **** 0.06
4296 C 41.36603605230725 4.603390410291521 70.15166790261914 C 0.0 **** -0.24
4297 H 40.34447448866905 4.224594293959655 70.12686160591964 H 0.0 **** 0.06
4298 H 41.72222269446205 4.6212160777425915 71.18166558080132 H 0.0 **** 0.06
4299 H 41.389271011413925 5.612908567545276 69.7420460097967 H 0.0 **** 0.06
4300 H 42.0093091576522 3.9544549633739976 69.55534626158132 H 0.0 **** 0.06
4301 C 87.24067270555526 74.60435880872896 117.58921617007633 C 0.0 **** -0.24
4302 H 86.86045232552718 73.58325295620864 117.57411091887565 H 0.0 **** 0.06
4303 H 87.20474227061041 75.0197894814644 116.582086952976 H 0.0 **** 0.06
4304 H 88.27071019549666 74.60378335822713 117.94595744984503 H 0.0 **** 0.06
4305 H 86.62541564210014 75.20983293621053 118.25542992077425 H 0.0 **** 0.06
4306 C 72.55123165069821 123.54422531721949 103.64813807298489 C 0.0 **** -0.24
4307 H 73.15665168906446 122.67585658901264 103.38921104603824 H 0.0 **** 0.06
4308 H 72.86539552374893 123.92849959927341 104.61842525791431 H 0.0 **** 0.06
4309 H 71.50112096750435 123.25366617552118 103.69411508556291 H 0.0 **** 0.06
4310 H 72.6816929942183 124.3174924838263 102.89107227419859 H 0.0 **** 0.06
4311 C 40.98063237996624 53.22278103151723 124.66896130956464 C 0.0 **** -0.24
4312 H 40.363722724749266 54.041498006895154 124.2981420811493 H 0.0 **** 0.06
4313 H 40.40081140218848 52.29911096563876 124.66159946200554 H 0.0 **** 0.06
4314 H 41.30199636364915 53.4420831506996 125.6871747783466 H 0.0 **** 0.06
4315 H 41.855082750809885 53.107431933397606 124.0293293942875 H 0.0 **** 0.06
4316 C 72.70827738717009 99.23977407067606 16.431924926696468 C 0.0 **** -0.24
4317 H 72.29494627631496 99.62423566515042 15.500494044002323 H 0.0 **** 0.06
4318 H 73.14429745413454 100.06021220171074 17.00265928580575 H 0.0 **** 0.06
4319 H 73.47830930849328 98.50059281599077 16.21000865787653 H 0.0 **** 0.06
4320 H 71.91412976593702 98.77246336269005 17.015733313111582 H 0.0 **** 0.06
4321 C 103.67049531194962 75.46174805898177 80.02496291979023 C 0.0 **** -0.24
4322 H 104.4674463480055 76.09687526554637 79.63967818843264 H 0.0 **** 0.06
4323 H 103.30116220685743 74.81614855657871 79.22729864434888 H 0.0 **** 0.06
4324 H 102.85589472023118 76.08556044024913 80.39403462220349 H 0.0 **** 0.06
4325 H 104.05551075986645 74.84833447675133 80.83990083262441 H 0.0 **** 0.06
4326 C 98.24231449644465 112.4756574865028 61.46228094481833 C 0.0 **** -0.24
4327 H 98.13218873369108 112.8839922697347 62.46694901083298 H 0.0 **** 0.06
4328 H 97.47869303672466 111.71557429491563 61.2930894430167 H 0.0 **** 0.06
4329 H 99.23053650919549 112.02833963045234 61.35834895590787 H 0.0 **** 0.06
4330 H 98.12723961525758 113.27563484520684 60.72983643316029 H 0.0 **** 0.06
4331 C 144.72111513530623 117.10925266151224 69.87935466665775 C 0.0 **** -0.24
4332 H 144.71248681512344 118.14981377392172 70.20374489228385 H 0.0 **** 0.06
4333 H 145.74983111478608 116.78680818816946 69.71685262108258 H 0.0 **** 0.06
4334 H 144.15855627618285 117.01361256100404 68.94952431147456 H 0.0 **** 0.06
4335 H 144.26146494880626 116.48631810642553 70.64675817739992 H 0.0 **** 0.06
4336 C 49.89227833211976 11.567389869497958 66.69858813922929 C 0.0 **** -0.24
4337 H 49.56813482157207 10.598217952781283 66.31944083614852 H 0.0 **** 0.06
4338 H 49.26249260829093 12.351247596001599 66.27714071859657 H 0.0 **** 0.06
4339 H 50.92942912991066 11.73999649421728 66.41413428124628 H 0.0 **** 0.06
4340 H 49.807313788323086 11.57795004580072 67.78546735457377 H 0.0 **** 0.06
4341 C 118.00942182579489 2.856735668794574 10.545202049160054 C 0.0 **** -0.24
4342 H 117.9680608130479 2.9110954753743883 9.45729112475658 H 0.0 **** 0.06
4343 H 117.01551596039185 3.0399401090971736 10.954778912095577 H 0.0 **** 0.06
4344 H 118.7022392913684 3.609840454031257 10.920918761642099 H 0.0 **** 0.06
4345 H 118.34997673819454 1.865869567236146 10.846647966916436 H 0.0 **** 0.06
4346 C 48.04743222572053 90.4437665533914 104.56002894453877 C 0.0 **** -0.24
4347 H 48.98938249216623 90.19844499179207 104.06941002328207 H 0.0 **** 0.06
4348 H 47.84064597665541 89.70787368205096 105.33752303186517 H 0.0 **** 0.06
4349 H 47.242295748828596 90.43403565245625 103.82580933865037 H 0.0 **** 0.06
4350 H 48.11909387085619 91.43503345959225 105.00758164911852 H 0.0 **** 0.06
4351 C 10.228235490289222 122.81363275830071 128.5604286050328 C 0.0 **** -0.24
4352 H 11.077572000157943 123.37116654853921 128.1652293197048 H 0.0 **** 0.06
4353 H 9.339719712030757 123.44384781564028 128.54141436698106 H 0.0 **** 0.06
4354 H 10.438559448169826 122.5108610395682 129.58665424139 H 0.0 **** 0.06
4355 H 10.060023949591397 121.92797737485259 127.94702469848116 H 0.0 **** 0.06
4356 C 82.38557149755984 136.0675593662686 83.0185008060295 C 0.0 **** -0.24
4357 H 82.0517051270772 135.03043660178048 83.05159941800173 H 0.0 **** 0.06
4358 H 83.40533322548237 136.13190598045577 83.39921916279854 H 0.0 **** 0.06
4359 H 81.72825650378913 136.6811376627289 83.63406521491018 H 0.0 **** 0.06
4360 H 82.35792647948801 136.42473992617377 81.98888305539322 H 0.0 **** 0.06
4361 C 28.57094902643687 13.083163918530175 95.9577675537542 C 0.0 **** -0.24
4362 H 29.486766748006524 13.399361744812836 95.45871773989265 H 0.0 **** 0.06
4363 H 28.76758399760255 12.179362297487387 96.53617856748843 H 0.0 **** 0.06
4364 H 27.802713723513932 12.87856473293121 95.21213253222575 H 0.0 **** 0.06
4365 H 28.229312004786472 13.874263305853361 96.62510164692944 H 0.0 **** 0.06
4366 C 14.3746942600255 74.77796695383296 130.92732395876916 C 0.0 **** -0.24
4367 H 14.831992080049893 73.9367094338759 131.4482283536403 H 0.0 **** 0.06
4368 H 13.558202753782517 75.17748347997104 131.52773881850757 H 0.0 **** 0.06
4369 H 13.988554447390314 74.44266062336928 129.9649297618267 H 0.0 **** 0.06
4370 H 15.122846370690404 75.55561354640676 130.76756421666462 H 0.0 **** 0.06
4371 C 70.32956283225178 77.9672916930688 112.60681003264547 C 0.0 **** -0.24
4372 H 70.65975354495617 76.94132636916694 112.44118640591024 H 0.0 **** 0.06
4373 H 69.42516812756634 78.15657169435998 112.02834118480136 H 0.0 **** 0.06
4374 H 71.11364706224867 78.65567392191537 112.29198355765611 H 0.0 **** 0.06
4375 H 70.12106751340917 78.11429027901043 113.66690391907845 H 0.0 **** 0.06
4376 C 113.77650658194271 60.87937152595006 3.1434287312051836 C 0.0 **** -0.24
4377 H 114.31016152327199 61.39942266448102 3.9390116101602715 H 0.0 **** 0.06
4378 H 113.53080568622063 61.58540524236474 2.34914261826275 H 0.0 **** 0.06
4379 H 112.85850566625969 60.44791982865672 3.5435308250554627 H 0.0 **** 0.06
4380 H 114.40662875350971 60.08607661521137 2.7424809946599744 H 0.0 **** 0.06
4381 C 138.75813441313232 60.885290089732365 125.07271524762213 C 0.0 **** -0.24
4382 H 139.5171739487476 61.66803850693594 125.05169510224258 H 0.0 **** 0.06
4383 H 138.94747014193547 60.21990898718457 125.91569443732664 H 0.0 **** 0.06
4384 H 138.79908300503178 60.315813842426564 124.14409319185438 H 0.0 **** 0.06
4385 H 137.77253403363449 61.33767995947497 125.17961785511719 H 0.0 **** 0.06
4386 C 57.52924126581834 80.18010140134301 66.18088727916131 C 0.0 **** -0.24
4387 H 57.848720565267854 79.95450688310551 67.1977363025156 H 0.0 **** 0.06
4388 H 56.7747380956385 79.45727040636969 65.86883718635346 H 0.0 **** 0.06
4389 H 58.386760334846485 80.1227609466928 65.5096838373476 H 0.0 **** 0.06
4390 H 57.10742328357577 81.18389366892374 66.1460087675487 H 0.0 **** 0.06
4391 C 55.629895406938004 79.08684108220024 118.63559846964417 C 0.0 **** -0.24
4392 H 56.56966348600203 78.53610088621059 118.66909576225918 H 0.0 **** 0.06
4393 H 55.261125911631694 79.23915688711116 119.65018551475272 H 0.0 **** 0.06
4394 H 54.896109614861714 78.51874710707796 118.06352193794608 H 0.0 **** 0.06
4395 H 55.79342796776341 80.053550927938 118.15803891741719 H 0.0 **** 0.06
4396 C 109.15909777793762 88.83391100567479 51.761384201763974 C 0.0 **** -0.24
4397 H 109.39697216756572 87.77420657456236 51.85709844728372 H 0.0 **** 0.06
4398 H 108.53986587596093 89.14405411258224 52.60424901100559 H 0.0 **** 0.06
4399 H 108.61655919350467 89.00170074087342 50.83104481070653 H 0.0 **** 0.06
4400 H 110.08126930988972 89.41460741195516 51.75451206149555 H 0.0 **** 0.06
4401 C 92.6064078926932 52.692821942777314 70.4923321108973 C 0.0 **** -0.24
4402 H 91.99814666243529 53.51688485568985 70.86677107598616 H 0.0 **** 0.06
4403 H 93.60648349355407 52.755004583516396 70.92240890251081 H 0.0 **** 0.06
4404 H 92.67248466356071 52.75530238884657 69.40626952637007 H 0.0 **** 0.06
4405 H 92.14773323924211 51.745762108103946 70.77466007746735 H 0.0 **** 0.06
4406 C 85.96256348237893 97.27750439847075 133.2167731614743 C 0.0 **** -0.24
4407 H 86.4395152684889 96.90510015891178 132.30973456980382 H 0.0 **** 0.06
4408 H 86.37813449699958 96.76211872442995 134.08269708257063 H 0.0 **** 0.06
4409 H 84.8892201245576 97.0928729549257 133.16489643086345 H 0.0 **** 0.06
4410 H 86.14347785672103 98.3482014118382 133.30875559705595 H 0.0 **** 0.06
4411 C 106.78924326740595 45.98405806208325 43.336999996595864 C 0.0 **** -0.24
4412 H 106.28728062756217 46.68215480558901 44.00620870809871 H 0.0 **** 0.06
4413 H 107.45259008243731 45.34037643696044 43.914208658750226 H 0.0 **** 0.06
4414 H 107.37095713724362 46.540349036894014 42.601245099407095 H 0.0 **** 0.06
4415 H 106.04543734917182 45.373418438153294 42.82421744565562 H 0.0 **** 0.06
4416 C 101.14032121151746 135.79493516913328 16.652966916229985 C 0.0 **** -0.24
4417 H 101.91582239155197 136.20926075075698 16.007607952478878 H 0.0 **** 0.06
4418 H 100.69234511325821 136.59600807166117 17.24135925017285 H 0.0 **** 0.06
4419 H 101.58045319708852 135.05452193795048 17.319634677027892 H 0.0 **** 0.06
4420 H 100.37281978146964 135.32209164597134 16.039472422560237 H 0.0 **** 0.06
4421 C 116.16417136748964 89.91795235428981 78.38488198659708 C 0.0 **** -0.24
4422 H 116.89890966218587 90.20774634556226 79.13686737860587 H 0.0 **** 0.06
4423 H 116.54681363184403 89.07338837540166 77.81095644889174 H 0.0 **** 0.06
4424 H 115.97844663593014 90.75722612649652 77.71578955025134 H 0.0 **** 0.06
4425 H 115.23442473139602 89.63193135130282 78.87766197519917 H 0.0 **** 0.06
4426 C 130.2363270405777 32.238959628284306 103.27830117074676 C 0.0 **** -0.24
4427 H 130.6472723754752 32.32242718915349 102.27214263522382 H 0.0 **** 0.06
4428 H 131.04643357434253 32.29707837171415 104.00647943895824 H 0.0 **** 0.06
4429 H 129.72223632109578 31.282761728577476 103.38230724152669 H 0.0 **** 0.06
4430 H 129.5309569761098 33.0510931050545 103.45170285475228 H 0.0 **** 0.06
4431 C 110.7702023157065 13.604214688077377 143.88409760080214 C 0.0 **** -0.24
4432 H 111.71587687692524 13.952868124271617 143.46910446701241 H 0.0 **** 0.06
4433 H 110.9297268710056 13.250727477149667 144.90239646205205 H 0.0 **** 0.06
4434 H 110.38431551980325 12.789615852961276 143.27243024830503 H 0.0 **** 0.06
4435 H 110.05250210906469 14.42490328495515 143.8915515896049 H 0.0 **** 0.06
4436 C 30.135518029943654 140.1042190875733 64.73143596622828 C 0.0 **** -0.24
4437 H 29.92204908965084 141.1722651164009 64.69319236496315 H 0.0 **** 0.06
4438 H 30.925347794994238 139.9171330317573 65.45954906510732 H 0.0 **** 0.06
4439 H 30.459637472883557 139.76375330220333 63.747263422385316 H 0.0 **** 0.06
4440 H 29.23544149892132 139.5639700870001 65.02379554783815 H 0.0 **** 0.06
4441 C 138.84158146082737 26.69969472550156 88.61640058654895 C 0.0 **** -0.24
4442 H 139.0559481454761 26.810958463389568 89.67962973943968 H 0.0 **** 0.06
4443 H 139.57521440758964 26.030224088865225 88.16715603393025 H 0.0 **** 0.06
4444 H 138.89196025580242 27.674738123379086 88.13197181192689 H 0.0 **** 0.06
4445 H 137.84278440897398 26.281441854582738 88.48945608945156 H 0.0 **** 0.06
4446 C 54.25877847668305 78.22435300104075 143.33237447581186 C 0.0 **** -0.24
4447 H 53.75155166772804 79.12460486395895 142.98750438236675 H 0.0 **** 0.06
4448 H 53.9632783479919 77.37951100787703 142.7102164738349 H 0.0 **** 0.06
4449 H 53.98251357981492 78.02662326332148 144.36842157176898 H 0.0 **** 0.06
4450 H 55.33751949467532 78.36618258737849 143.26419019599695 H 0.0 **** 0.06
4451 C 109.55856185627913 133.62728327711162 13.548304462482662 C 0.0 **** -0.24
4452 H 109.00671489717458 133.33030536222688 12.656062914566434 H 0.0 **** 0.06
4453 H 109.72791501328133 134.70405990992364 13.528068190762184 H 0.0 **** 0.06
4454 H 110.51724852056874 133.10806992226495 13.571092956138358 H 0.0 **** 0.06
4455 H 108.98231411036586 133.36515793879042 14.435056792628245 H 0.0 **** 0.06
4456 C 31.228171386814495 0.20586174094020748 67.96454317777389 C 0.0 **** -0.24
4457 H 32.271209140048256 0.1619711738243268 67.65181527649517 H 0.0 **** 0.06
4458 H 30.584942933984735 0.1969826538130235 67.08387793372272 H 0.0 **** 0.06
4459 H 31.057210666326597 1.1218924126368677 68.53021282215603 H 0.0 **** 0.06
4460 H 31.00015888733482 -0.6567435235423318 68.59089880131839 H 0.0 **** 0.06
4461 C 7.776985356463882 109.53793836790327 122.6020811296841 C 0.0 **** -0.24
4462 H 8.757297301559817 109.30156762015922 123.01432159413915 H 0.0 **** 0.06
4463 H 7.054381865461039 109.63385492311436 123.4129437188315 H 0.0 **** 0.06
4464 H 7.463281513248916 108.73981179140624 121.92859927988523 H 0.0 **** 0.06
4465 H 7.8311621333709525 110.476626409382 122.05029625037552 H 0.0 **** 0.06
4466 C 5.7858904464638385 125.52582079116445 7.275163500295836 C 0.0 **** -0.24
4467 H 5.20281817855863 124.95989731488281 8.0028971889983 H 0.0 **** 0.06
4468 H 5.241599588573422 125.57154010565337 6.331924877209161 H 0.0 **** 0.06
4469 H 6.74591144906293 125.03612658875007 7.117943672601292 H 0.0 **** 0.06
4470 H 5.950159955624542 126.53629750100707 7.6499437844151785 H 0.0 **** 0.06
4471 C 63.51938952946537 3.29759372849324 45.6722075718904 C 0.0 **** -0.24
4472 H 63.65685881233318 2.8815135462741637 46.67021427118628 H 0.0 **** 0.06
4473 H 64.38235472495714 3.9110478714785586 45.411917326000676 H 0.0 **** 0.06
4474 H 62.618731557354266 3.911301602923544 45.655631736492055 H 0.0 **** 0.06
4475 H 63.418655174093004 2.4863720526983286 44.95081592929266 H 0.0 **** 0.06
4476 C 143.00091256200156 91.03217293616203 103.93530045666775 C 0.0 **** -0.24
4477 H 142.19280578901282 91.57975448757324 103.45020274612371 H 0.0 **** 0.06
4478 H 143.53146357149024 91.69707141657587 104.61733532499079 H 0.0 **** 0.06
4479 H 143.69147692398528 90.65946756703985 103.17967528008849 H 0.0 **** 0.06
4480 H 142.58579284687067 90.19308886861943 104.49424631889855 H 0.0 **** 0.06
4481 C 51.44984246325566 41.576463612584405 48.38643651550704 C 0.0 **** -0.24
4482 H 52.36171286553669 41.91370836791215 47.89412541523896 H 0.0 **** 0.06
4483 H 51.598093541395315 41.579189577256784 49.46677448468341 H 0.0 **** 0.06
4484 H 51.21066789926597 40.565711658410564 48.05480126070178 H 0.0 **** 0.06
4485 H 50.62918053259426 42.24638702413425 48.130472647987276 H 0.0 **** 0.06
4486 C 56.72348712901237 88.16501323510364 68.02294218950021 C 0.0 **** -0.24
4487 H 56.684461547292955 88.81341316116546 67.14729873337848 H 0.0 **** 0.06
4488 H 55.816563404877485 88.29798409615582 68.61368583252022 H 0.0 **** 0.06
4489 H 57.59297631937105 88.42373330012266 68.62785739492767 H 0.0 **** 0.06
4490 H 56.800341884549596 87.12649422856995 67.70231549389842 H 0.0 **** 0.06
4491 C 143.098103646796 2.8003986778672925 66.23022090814064 C 0.0 **** -0.24
4492 H 143.0640450876187 2.097947896452098 65.39734827793129 H 0.0 **** 0.06
4493 H 142.4488975610824 3.6500276807103376 66.01386933895455 H 0.0 **** 0.06
4494 H 144.12044906562505 3.1496779601468177 66.36878370622895 H 0.0 **** 0.06
4495 H 142.7569503620537 2.3034424481583926 67.13780715369742 H 0.0 **** 0.06
4496 C 86.57192149891834 60.15469786516498 107.69944506410498 C 0.0 **** -0.24
4497 H 86.22795039575766 59.902510555314294 108.70264611433053 H 0.0 **** 0.06
4498 H 87.19745554573585 61.04659542326837 107.74364716666416 H 0.0 **** 0.06
4499 H 85.7107387807217 60.34509548273266 107.05849343106841 H 0.0 **** 0.06
4500 H 87.15052738108096 59.32457275863938 107.29397934979882 H 0.0 **** 0.06
4501 C 10.049248457885234 145.3229587766817 85.05219360654644 C 0.0 **** -0.24
4502 H 9.169184985274416 145.35389478462494 85.69540756134603 H 0.0 **** 0.06
4503 H 9.956560253856374 146.07977235618253 84.2736725915633 H 0.0 **** 0.06
4504 H 10.127888676251239 144.33701828205707 84.59370263619002 H 0.0 **** 0.06
4505 H 10.94077079925475 145.51959163055992 85.64692404278344 H 0.0 **** 0.06
4506 C 15.334240918530071 92.38922022247357 137.76779975477245 C 0.0 **** -0.24
4507 H 15.593236616699926 93.32989922208873 138.25284316109702 H 0.0 **** 0.06
4508 H 15.08683318811493 92.57592256028346 136.72224650479566 H 0.0 **** 0.06
4509 H 14.476496271730639 91.94476509500919 138.27113919500442 H 0.0 **** 0.06
4510 H 16.18231169253545 91.70667346368248 137.82387815283522 H 0.0 **** 0.06
4511 C 102.86261927492492 107.40369588551883 77.44784427199122 C 0.0 **** -0.24
4512 H 103.25241010051577 108.40506211246716 77.6279626915331 H 0.0 **** 0.06
4513 H 102.2272672527001 107.4155251933818 76.56199733784555 H 0.0 **** 0.06
4514 H 102.27802628564645 107.08078107893581 78.31006409296967 H 0.0 **** 0.06
4515 H 103.6918650292418 106.71338811481442 77.29243652830766 H 0.0 **** 0.06
4516 C 3.647925114068755 94.50092858701223 62.43472937510592 C 0.0 **** -0.24
4517 H 4.3913121486090745 94.37367436832633 61.6477840294408 H 0.0 **** 0.06
4518 H 3.720189872605431 95.50813321372206 62.84321128758668 H 0.0 **** 0.06
4519 H 3.829199685550691 93.77313823200524 63.22636229143811 H 0.0 **** 0.06
4520 H 2.6516148272767737 94.34640133312686 62.02142923849763 H 0.0 **** 0.06
4521 C 78.33011991584623 106.47294861869672 110.0030152506779 C 0.0 **** -0.24
4522 H 79.3134373511203 106.21391819095636 109.61009163422334 H 0.0 **** 0.06
4523 H 77.57925657719139 106.33253439980639 109.22518685774459 H 0.0 **** 0.06
4524 H 78.33081152087358 107.51385459002434 110.325256065907 H 0.0 **** 0.06
4525 H 78.09829173896944 105.82965883566486 110.85248620037406 H 0.0 **** 0.06
4526 C 31.66090574525458 136.40242659387317 95.37420351806954 C 0.0 **** -0.24
4527 H 31.01691274359007 137.2567337402902 95.16530590119734 H 0.0 **** 0.06
4528 H 32.698120834623865 136.7332493930272 95.42492844837604 H 0.0 **** 0.06
4529 H 31.552963797422876 135.6641364385985 94.58041070920365 H 0.0 **** 0.06
4530 H 31.374506337229718 135.95621837801988 96.32675930147391 H 0.0 **** 0.06
4531 C 71.99212649557546 76.40824026757689 63.85444880433684 C 0.0 **** -0.24
4532 H 72.35691319177249 77.25000966757162 63.26627636564592 H 0.0 **** 0.06
4533 H 71.34821586648718 75.7838957213031 63.23490793199406 H 0.0 **** 0.06
4534 H 71.4262509911639 76.77893821777741 64.70854469847418 H 0.0 **** 0.06
4535 H 72.83905446910228 75.81909861431623 64.20855908274228 H 0.0 **** 0.06
4536 C 20.022239920627072 26.771616743744104 19.34436246946654 C 0.0 **** -0.24
4537 H 21.083838624016195 26.569985201469592 19.49121565825525 H 0.0 **** 0.06
4538 H 19.89932478374857 27.507084175275075 18.54830688498545 H 0.0 **** 0.06
4539 H 19.594792235570623 27.15986527758176 20.26855586167538 H 0.0 **** 0.06
4540 H 19.512884932800205 25.847950472469144 19.067971349758594 H 0.0 **** 0.06
4541 C 40.87862421837559 1.4685146221647756 140.612940818702 C 0.0 **** -0.24
4542 H 41.63810449691732 1.2109208360385537 141.3512558271987 H 0.0 **** 0.06
4543 H 40.69648323909968 0.6109852477770801 139.9654217691678 H 0.0 **** 0.06
4544 H 41.225638515224546 2.309986911741987 140.01340570475816 H 0.0 **** 0.06
4545 H 39.95474579325912 1.7420927978104714 141.12255688394004 H 0.0 **** 0.06
4546 C 4.506041727152763 133.82105386665543 144.80017743386335 C 0.0 **** -0.24
4547 H 3.9764510626581 134.57843155862025 145.37872275341456 H 0.0 **** 0.06
4548 H 5.061001194140374 134.30147581433278 143.9948752524248 H 0.0 **** 0.06
4549 H 3.7875945564429685 133.11841666113065 144.3782822973817 H 0.0 **** 0.06
4550 H 5.19803809800311 133.28617067456932 145.4507663173599 H 0.0 **** 0.06
4551 C 97.88403774057791 31.26099651078593 136.7239259023009 C 0.0 **** -0.24
4552 H 98.58303182826573 30.912670920693756 135.96391641523414 H 0.0 **** 0.06
4553 H 98.11241772716829 30.778524121567926 137.6751482444689 H 0.0 **** 0.06
4554 H 96.86635469356942 31.009118394884666 136.4243302399387 H 0.0 **** 0.06
4555 H 97.97413912713898 32.341972105854296 136.83374586844536 H 0.0 **** 0.06
4556 C 53.60338813445594 53.28736245982677 141.31948369523184 C 0.0 **** -0.24
4557 H 53.60320713078414 52.45398319929845 140.61636143935587 H 0.0 **** 0.06
4558 H 54.42067977241021 53.966278632912605 141.0763107083764 H 0.0 **** 0.06
4559 H 53.73379270296169 52.907019878851 142.33219985943222 H 0.0 **** 0.06
4560 H 52.6547174624622 53.819756655033274 141.2504454660977 H 0.0 **** 0.06
4561 C 137.7147890378363 86.92403862924301 36.89545450326615 C 0.0 **** -0.24
4562 H 137.40714473250853 86.07232536459705 36.2882704947547 H 0.0 **** 0.06
4563 H 138.71330571510222 87.24195320401196 36.594695987468995 H 0.0 **** 0.06
4564 H 137.72604998618377 86.63533175048373 37.9465450954327 H 0.0 **** 0.06
4565 H 137.01276430105776 87.74534919050387 36.75041953705235 H 0.0 **** 0.06
4566 C 61.30121486154853 28.019810492416667 72.82168032035166 C 0.0 **** -0.24
4567 H 60.41689244497351 28.07095849746723 73.45618453923844 H 0.0 **** 0.06
4568 H 61.93920387944911 27.200452433939176 73.15530188803658 H 0.0 **** 0.06
4569 H 61.85055287503863 28.95866512714848 72.8871141951611 H 0.0 **** 0.06
4570 H 60.997572769832715 27.8474490850994 71.78940376070254 H 0.0 **** 0.06
4571 C 87.02803046413463 75.37007266944264 95.7373197109635 C 0.0 **** -0.24
4572 H 86.12074877254383 75.35108565873784 96.34079655773593 H 0.0 **** 0.06
4573 H 87.45056756994342 76.37548734007979 95.75003561781149 H 0.0 **** 0.06
4574 H 86.78817776215097 75.08971853569855 94.71203043255292 H 0.0 **** 0.06
4575 H 87.75177996811848 74.6654810535916 96.1481727853557 H 0.0 **** 0.06
4576 C 46.784316892707764 40.594008135458466 59.92195909063369 C 0.0 **** -0.24
4577 H 46.36758529805577 39.64152994355442 60.24838203575618 H 0.0 **** 0.06
4578 H 45.97578566490412 41.26372240393613 59.62856182023509 H 0.0 **** 0.06
4579 H 47.44524920015765 40.42800134006586 59.071302802193884 H 0.0 **** 0.06
4580 H 47.34936668846683 41.04195201574777 60.73869580244963 H 0.0 **** 0.06
4581 C 54.70622145962159 39.86367403668481 36.696086300584085 C 0.0 **** -0.24
4582 H 53.70829722068433 40.17602616921852 37.00200656320831 H 0.0 **** 0.06
4583 H 54.65320828205745 39.39187695902348 35.713962531135195 H 0.0 **** 0.06
4584 H 55.10206863674996 39.15128009752323 37.420131049903674 H 0.0 **** 0.06
4585 H 55.36060772000202 40.73445893571977 36.64669789830771 H 0.0 **** 0.06
4586 C 138.6277313350729 17.02696517079488 94.795590700018 C 0.0 **** -0.24
4587 H 137.59191053856972 16.93622860321102 94.46977938240444 H 0.0 **** 0.06
4588 H 139.27207243886835 17.14927759306528 93.92452862190642 H 0.0 **** 0.06
4589 H 138.91800219129584 16.12729488012627 95.33938307775271 H 0.0 **** 0.06
4590 H 138.72918246992367 17.89394950256502 95.44702577303137 H 0.0 **** 0.06
4591 C 4.941393725749151 42.89063103155097 32.58692146466231 C 0.0 **** -0.24
4592 H 4.494718437960927 42.264524833108496 33.35946604131707 H 0.0 **** 0.06
4593 H 4.276723273749127 42.93211556328039 31.724697555562784 H 0.0 **** 0.06
4594 H 5.900789783298308 42.46745744984551 32.28755836400966 H 0.0 **** 0.06
4595 H 5.094081574120224 43.89664637502945 32.97826334167154 H 0.0 **** 0.06
4596 C 17.355076583188065 117.90210507934438 98.23953327325492 C 0.0 **** -0.24
4597 H 17.932376971005397 117.39482509574805 97.46673306301508 H 0.0 **** 0.06
4598 H 16.553949346185334 118.47751026969871 97.7759085304088 H 0.0 **** 0.06
4599 H 18.007387366546652 118.57261288780984 98.79893189087167 H 0.0 **** 0.06
4600 H 16.92741369326592 117.16290156767451 98.91653807213652 H 0.0 **** 0.06
4601 C 44.27097981764477 135.2296102726441 119.61892409811269 C 0.0 **** -0.24
4602 H 44.02723418902737 135.46946308624462 120.65398187465412 H 0.0 **** 0.06
4603 H 45.330821046809206 135.4158491385997 119.443531462074 H 0.0 **** 0.06
4604 H 43.67721624731534 135.85465610275537 118.95188929218797 H 0.0 **** 0.06
4605 H 44.04938276625697 134.1807422454266 119.42685010661391 H 0.0 **** 0.06
4606 C 66.25176366522024 82.47743607054194 129.74223753044365 C 0.0 **** -0.24
4607 H 66.49941024542844 82.63849961575991 130.7918344235524 H 0.0 **** 0.06
4608 H 66.14668315626128 81.40953100832694 129.55277057087523 H 0.0 **** 0.06
4609 H 67.04680747240755 82.88217818261052 129.11621592443086 H 0.0 **** 0.06
4610 H 65.31372183517036 82.98252181727375 129.50983087991875 H 0.0 **** 0.06
4611 C 24.25484587144914 110.27314849936354 14.381766437732438 C 0.0 **** -0.24
4612 H 24.38738636512918 111.00709129259329 13.586968423606038 H 0.0 **** 0.06
4613 H 24.500168978706334 110.7292088061603 15.341543245304933 H 0.0 **** 0.06
4614 H 24.91406521633464 109.4232046283428 14.203569369195066 H 0.0 **** 0.06
4615 H 23.219836015023205 109.93399416005732 14.394044639913659 H 0.0 **** 0.06
4616 C 77.20661219580094 63.736352087046726 46.465908816521846 C 0.0 **** -0.24
4617 H 76.92840620422186 64.47396934912655 47.21850106158661 H 0.0 **** 0.06
4618 H 78.0570751421005 64.10724634820222 45.89283973611958 H 0.0 **** 0.06
4619 H 76.36386560287724 63.565161750769974 45.797602105092665 H 0.0 **** 0.06
4620 H 77.47807065698744 62.80151272671023 46.95607160648041 H 0.0 **** 0.06
4621 C 43.440978835786225 94.87815143788043 65.64789685711486 C 0.0 **** -0.24
4622 H 43.35863637470736 95.95936105514977 65.7577620867323 H 0.0 **** 0.06
4623 H 42.889349859529986 94.38829465677395 66.451445725242 H 0.0 **** 0.06
4624 H 44.490380730942064 94.58668569512969 65.69595200561675 H 0.0 **** 0.06
4625 H 43.02434397331213 94.57870921061158 64.68583465985053 H 0.0 **** 0.06
4626 C 88.94517682666003 95.06168996837732 102.99051553711628 C 0.0 **** -0.24
4627 H 87.95924682984989 95.39843403336371 103.31105629398634 H 0.0 **** 0.06
4628 H 89.29402994867539 94.27279727157011 103.65877508147271 H 0.0 **** 0.06
4629 H 89.64337814167564 95.89808967058309 103.02040452035394 H 0.0 **** 0.06
4630 H 88.88356853169887 94.67537252292641 101.97253066523565 H 0.0 **** 0.06
4631 C 48.90738335617411 16.85686859779264 57.48588477669284 C 0.0 **** -0.24
4632 H 48.97599661191637 16.52142762754937 56.45029531088602 H 0.0 **** 0.06
4633 H 48.789638756843104 17.940328646929913 57.50854387393625 H 0.0 **** 0.06
4634 H 49.81601986564287 16.57806810930407 58.01882271476643 H 0.0 **** 0.06
4635 H 48.047715704324276 16.387607307250335 57.96288184941676 H 0.0 **** 0.06
4636 C 144.04342573515132 123.14153458784179 36.065595753880416 C 0.0 **** -0.24
4637 H 143.25019089325144 123.88626967522168 36.13117802170501 H 0.0 **** 0.06
4638 H 144.4969349125332 123.18037908061325 35.075604647292835 H 0.0 **** 0.06
4639 H 143.6256952369986 122.1496285570638 36.2357413372074 H 0.0 **** 0.06
4640 H 144.8002572248891 123.35068326254859 36.82124964310543 H 0.0 **** 0.06
4641 C 94.60142500326998 87.67288976326094 94.68315423659118 C 0.0 **** -0.24
4642 H 93.7226538748519 87.12406069772776 94.34214701005166 H 0.0 **** 0.06
4643 H 94.28747466992658 88.50054673071239 95.31916290651233 H 0.0 **** 0.06
4644 H 95.14271105479035 88.0615529743522 93.82118140111845 H 0.0 **** 0.06
4645 H 95.24977041476717 87.00397785169945 95.24856554830478 H 0.0 **** 0.06
4646 C 116.13959849554931 141.22546594999693 96.52312466387383 C 0.0 **** -0.24
4647 H 116.23260376828966 141.21500760001982 97.60919167251305 H 0.0 **** 0.06
4648 H 115.15576634802648 141.60354944077102 96.24594230787116 H 0.0 **** 0.06
4649 H 116.26169335125121 140.21192083713427 96.13900864266816 H 0.0 **** 0.06
4650 H 116.91032527548657 141.86928571434757 96.09913734532373 H 0.0 **** 0.06
4651 C 134.16964019396954 145.0932579569176 23.20323042678679 C 0.0 **** -0.24
4652 H 134.7612970373041 145.9363259182684 22.845472799757474 H 0.0 **** 0.06
4653 H 134.6976055399499 144.60048546163395 24.02046773417041 H 0.0 **** 0.06
4654 H 134.0184996392002 144.38464875642893 22.388304986915216 H 0.0 **** 0.06
4655 H 133.20421006930368 145.45124211773322 23.557914539724834 H 0.0 **** 0.06
4656 C 94.99070683043823 37.493397939882314 6.488109296555223 C 0.0 **** -0.24
4657 H 94.28590634592753 38.229034234726015 6.101027394108993 H 0.0 **** 0.06
4658 H 94.72470077492054 37.24057360086171 7.515020479437421 H 0.0 **** 0.06
4659 H 95.99897635901412 37.9089598701991 6.4650699453866025 H 0.0 **** 0.06
4660 H 94.95464360155607 36.59501532669873 5.871521070240849 H 0.0 **** 0.06
4661 C 132.22890913786264 87.80965844363112 38.963874851965954 C 0.0 **** -0.24
4662 H 131.1987110827966 87.55199712833809 38.71989027852342 H 0.0 **** 0.06
4663 H 132.90158949164177 87.32967833349585 38.25197162742633 H 0.0 **** 0.06
4664 H 132.46030617848314 87.46573520827968 39.9714189278574 H 0.0 **** 0.06
4665 H 132.35481139224308 88.89065665793441 38.91006644592514 H 0.0 **** 0.06
4666 C 16.04713873506833 115.7344850657416 103.19836090187786 C 0.0 **** -0.24
4667 H 15.962644650989006 114.90788345290086 102.49310888580162 H 0.0 **** 0.06
4668 H 16.905274514118872 115.56952943730609 103.8509538701027 H 0.0 **** 0.06
4669 H 15.13983298815242 115.7932159900394 103.79971925140144 H 0.0 **** 0.06
4670 H 16.18188844509922 116.66722100292402 102.65056341247879 H 0.0 **** 0.06
4671 C 22.829866816291997 19.256508789319838 120.76470040917678 C 0.0 **** -0.24
4672 H 22.48449635828564 18.716951192332658 119.88373635046662 H 0.0 **** 0.06
4673 H 23.91474332021386 19.35592704750104 120.72781027566265 H 0.0 **** 0.06
4674 H 22.544406379855275 18.707552623133182 121.66195307958048 H 0.0 **** 0.06
4675 H 22.37461264138716 20.247468808750824 120.78555327524361 H 0.0 **** 0.06
4676 C 9.084202341019022 139.74745655815664 47.448928998501685 C 0.0 **** -0.24
4677 H 9.579633006061371 139.37531699526292 48.34486339025044 H 0.0 **** 0.06
4678 H 8.836374433563442 140.80047808467012 47.5816086109547 H 0.0 **** 0.06
4679 H 8.17122922057779 139.17831771116525 47.27505855325525 H 0.0 **** 0.06
4680 H 9.749729175837963 139.63540085177007 46.59248899172414 H 0.0 **** 0.06
4681 C 31.938058672453998 96.1679453780975 39.75985505845051 C 0.0 **** -0.24
4682 H 32.83779266675402 95.55393262561458 39.80016607603517 H 0.0 **** 0.06
4683 H 31.163839943963623 95.642143901715 39.19960588463536 H 0.0 **** 0.06
4684 H 32.16546187542021 97.11322477332581 39.26748169711826 H 0.0 **** 0.06
4685 H 31.58583008021666 96.3616052515072 40.77303755381203 H 0.0 **** 0.06
4686 C 43.196485432535866 104.47661352134088 95.97182124917528 C 0.0 **** -0.24
4687 H 42.86928789548614 103.55602168750607 96.45462278569488 H 0.0 **** 0.06
4688 H 43.275731581845974 104.31414488398937 94.89638880805364 H 0.0 **** 0.06
4689 H 44.169804955530225 104.76839031064304 96.36830879881825 H 0.0 **** 0.06
4690 H 42.473266273092065 105.26741346800611 96.16834946984183 H 0.0 **** 0.06
4691 C 57.56451647403449 90.4404182478121 74.21362517486018 C 0.0 **** -0.24
4692 H 56.83387799078865 89.69431031474424 73.90072539995887 H 0.0 **** 0.06
4693 H 58.08656112188987 90.8263851559761 73.33791469784275 H 0.0 **** 0.06
4694 H 58.282532767517466 89.98307675825353 74.89350767225189 H 0.0 **** 0.06
4695 H 57.0530632498771 91.25860610297771 74.72173754162868 H 0.0 **** 0.06
4696 C 136.6102377143192 72.27558339409865 125.84906064437496 C 0.0 **** -0.24
4697 H 137.1300460983562 71.83383827121213 126.69955309690562 H 0.0 **** 0.06
4698 H 136.03193170981862 73.13670064288166 126.18517696620052 H 0.0 **** 0.06
4699 H 135.94150154865807 71.53674178149222 125.40891765321766 H 0.0 **** 0.06
4700 H 137.34005114609985 72.59540121569196 125.1046502374437 H 0.0 **** 0.06
4701 C 21.47568173249914 69.58359971369597 145.3546724907673 C 0.0 **** -0.24
4702 H 22.39791430654705 70.13553495687684 145.17295989941567 H 0.0 **** 0.06
4703 H 21.354362878706326 68.81861540398837 144.58737420284018 H 0.0 **** 0.06
4704 H 20.62856207300584 70.26934789970032 145.32127125485113 H 0.0 **** 0.06
4705 H 21.522857052344733 69.11078300061733 146.3356540102718 H 0.0 **** 0.06
4706 C 138.2615438014357 113.78081429305824 44.12071341970929 C 0.0 **** -0.24
4707 H 137.79848680474385 114.72843412401157 43.84603404412934 H 0.0 **** 0.06
4708 H 139.3464632514969 113.88413119487394 44.08681157899029 H 0.0 **** 0.06
4709 H 137.94711785915146 113.0068381864633 43.42035977863057 H 0.0 **** 0.06
4710 H 137.95355730262116 113.50508896952532 45.1292339966915 H 0.0 **** 0.06
4711 C 2.4699611421715986 84.94436317157458 19.436072201832047 C 0.0 **** -0.24
4712 H 2.9213723414834476 84.35605229521289 20.23460906001452 H 0.0 **** 0.06
4713 H 3.2397250299240454 85.53331994098806 18.93803671251146 H 0.0 **** 0.06
4714 H 1.717629013096996 85.61141575956097 19.85761713814594 H 0.0 **** 0.06
4715 H 1.998756122597456 84.2761893100819 18.714467417419456 H 0.0 **** 0.06
4716 C 3.554483496240689 60.9925061497521 87.6344584293958 C 0.0 **** -0.24
4717 H 3.012304626964852 61.896077725895125 87.91223955422754 H 0.0 **** 0.06
4718 H 2.8768152331063703 60.30186738638278 87.13162668641525 H 0.0 **** 0.06
4719 H 3.956082901986562 60.52026354528995 88.53165561326105 H 0.0 **** 0.06
4720 H 4.372648964971642 61.25157241009755 86.96327828480906 H 0.0 **** 0.06
4721 C 132.7179624377394 137.71021700975416 73.52509828698375 C 0.0 **** -0.24
4722 H 132.99832894070684 136.85684644175348 74.14188281803455 H 0.0 **** 0.06
4723 H 132.30199403319088 138.49508619650868 74.15811930965752 H 0.0 **** 0.06
4724 H 131.973223764722 137.4002307087918 72.7929387135285 H 0.0 **** 0.06
4725 H 133.59989084524386 138.0903220662987 73.00838136484526 H 0.0 **** 0.06
4726 C 89.84365555732967 42.43284560981097 7.22859990914597 C 0.0 **** -0.24
4727 H 89.7194375892233 41.41997310229917 6.84692723675775 H 0.0 **** 0.06
4728 H 89.06826900769764 42.640150305210824 7.966438902649742 H 0.0 **** 0.06
4729 H 89.76124243571698 43.143886380347084 6.406258727592842 H 0.0 **** 0.06
4730 H 90.82440035923625 42.52798886842103 7.69475899712117 H 0.0 **** 0.06
4731 C 45.21109699170823 138.93254533872388 8.895896741003753 C 0.0 **** -0.24
4732 H 45.55655719921312 138.408278113208 9.786520111128937 H 0.0 **** 0.06
4733 H 45.55741858742259 139.96565375219544 8.925362917316022 H 0.0 **** 0.06
4734 H 44.12175436178829 138.91402785833023 8.863591449388935 H 0.0 **** 0.06
4735 H 45.60953548946742 138.44074265971076 8.007906408510394 H 0.0 **** 0.06
4736 C 119.87660663404247 59.8054814305907 143.12492373146887 C 0.0 **** -0.24
4737 H 120.50594764338169 60.381608580925445 143.80339355856165 H 0.0 **** 0.06
4738 H 118.93045611161577 60.327560813724915 142.97558757059707 H 0.0 **** 0.06
4739 H 119.68546168814802 58.82195363348677 143.55410734793048 H 0.0 **** 0.06
4740 H 120.38453138025002 59.6921264606334 142.16710328579535 H 0.0 **** 0.06
4741 C 35.543811018593374 80.56200308042098 132.61382020046304 C 0.0 **** -0.24
4742 H 35.59705023815863 81.03423233425042 131.63340601877937 H 0.0 **** 0.06
4743 H 35.76530432987319 79.49894175334717 132.5179492706948 H 0.0 **** 0.06
4744 H 34.542605003335126 80.68883639676015 133.0246774584274 H 0.0 **** 0.06
4745 H 36.2718421675757 81.02514215020791 133.2806026157096 H 0.0 **** 0.06
4746 C 3.128183408116513 29.897734833218635 115.00560340861429 C 0.0 **** -0.24
4747 H 4.1610156335714805 29.763933892009987 115.32808103879555 H 0.0 **** 0.06
4748 H 2.6902362179905595 30.747356011753098 115.52971028562914 H 0.0 **** 0.06
4749 H 2.5573412861269276 28.99686770539997 115.23236014713163 H 0.0 **** 0.06
4750 H 3.1041489314546595 30.080730578346135 113.93137168554492 H 0.0 **** 0.06
4751 C 38.14279087402133 122.55256194206443 114.32522438733915 C 0.0 **** -0.24
4752 H 38.04359213123604 121.76797094005117 113.57578831890979 H 0.0 **** 0.06
4753 H 37.71918867111057 122.20915910821493 115.2686842628348 H 0.0 **** 0.06
4754 H 37.61046997367376 123.44420818087823 113.99110550930382 H 0.0 **** 0.06
4755 H 39.19745736657809 122.7904767631971 114.4641633282973 H 0.0 **** 0.06
4756 C 26.402750499587512 9.359822200863945 108.41890690400584 C 0.0 **** -0.24
4757 H 26.4661099244652 9.17281006614784 109.4917186397077 H 0.0 **** 0.06
4758 H 25.728732152583177 10.195689564330237 108.23470629947496 H 0.0 **** 0.06
4759 H 26.02415601180357 8.468330400031029 107.9175192899703 H 0.0 **** 0.06
4760 H 27.393527508826054 9.599583892674438 108.03323718105702 H 0.0 **** 0.06
4761 C 139.9544493135431 36.94731436643708 15.226388062852912 C 0.0 **** -0.24
4762 H 139.11580855432408 37.641315971978095 15.276759863777457 H 0.0 **** 0.06
4763 H 139.80826871726828 36.147233674229945 15.952210372362678 H 0.0 **** 0.06
4764 H 140.87922872401077 37.4781929493313 15.452781254851573 H 0.0 **** 0.06
4765 H 140.01477967929773 36.52329025583886 14.224947790486006 H 0.0 **** 0.06
4766 C 144.54381982874492 144.87604629936988 97.12471368348994 C 0.0 **** -0.24
4767 H 143.7043657401387 145.42098370764433 96.69135354563758 H 0.0 **** 0.06
4768 H 145.46091706857936 145.1461134463495 96.60226824612471 H 0.0 **** 0.06
4769 H 144.36976220152167 143.80469211625157 97.02593594182979 H 0.0 **** 0.06
4770 H 144.63747039836358 145.13271592131014 98.17980569948149 H 0.0 **** 0.06
4771 C 41.93781177245876 91.0957659297264 69.6323314819199 C 0.0 **** -0.24
4772 H 42.740767102800135 91.19886620154819 68.902993471913 H 0.0 **** 0.06
4773 H 41.83724410099626 90.04744999730029 69.9144533893005 H 0.0 **** 0.06
4774 H 41.00343899940606 91.44651126243637 69.19564043443457 H 0.0 **** 0.06
4775 H 42.17200258258043 91.68937714350088 70.5156084809339 H 0.0 **** 0.06
4776 C 142.41087424801734 58.0222450660994 112.2685451368214 C 0.0 **** -0.24
4777 H 143.15532498512775 57.269509330796964 112.52820629166315 H 0.0 **** 0.06
4778 H 142.3622673835553 58.77341422880747 113.05809706131559 H 0.0 **** 0.06
4779 H 141.43578244675817 57.547255896483094 112.15919169023435 H 0.0 **** 0.06
4780 H 142.68946769103803 58.500396858185695 111.32884172331602 H 0.0 **** 0.06
4781 C 96.9480139181619 8.224224378760795 140.5128260693135 C 0.0 **** -0.24
4782 H 96.43260271564196 8.717111595249662 141.33813052886663 H 0.0 **** 0.06
4783 H 96.22361758273416 7.948345957449703 139.74672299014824 H 0.0 **** 0.06
4784 H 97.44809169109004 7.328834543360216 140.88097702561865 H 0.0 **** 0.06
4785 H 97.68565167550543 8.905315446826819 140.08797973326844 H 0.0 **** 0.06
4786 C 18.586029794255353 93.46884598424701 145.0981652803209 C 0.0 **** -0.24
4787 H 19.123927092067618 93.40390120103653 144.15173798790667 H 0.0 **** 0.06
4788 H 17.549794759736244 93.7510708943623 144.90793642840114 H 0.0 **** 0.06
4789 H 19.056622082288015 94.22060769221041 145.73230655564532 H 0.0 **** 0.06
4790 H 18.61403287958575 92.50103316685536 145.59912344957672 H 0.0 **** 0.06
4791 C 119.89436337260481 65.08448571093885 135.735740757456 C 0.0 **** -0.24
4792 H 120.68579082507183 65.81728295529129 135.57503067839218 H 0.0 **** 0.06
4793 H 120.33430696672333 64.09152832924161 135.83694965463397 H 0.0 **** 0.06
4794 H 119.21195001090483 65.09432677880125 134.88569542636037 H 0.0 **** 0.06
4795 H 119.34712215472014 65.33397132882448 136.64468787557655 H 0.0 **** 0.06
4796 C 32.535330144869484 33.17682516923293 21.51053588868652 C 0.0 **** -0.24
4797 H 32.37788672929031 32.96777256321201 22.56851011429977 H 0.0 **** 0.06
4798 H 31.585965950228406 33.45040766021947 21.04878899104898 H 0.0 **** 0.06
4799 H 32.93538261706091 32.29000406855343 21.020761271377097 H 0.0 **** 0.06
4800 H 33.240676668327396 34.00074279392248 21.404692125673762 H 0.0 **** 0.06
4801 C 92.38997511040655 113.36990649296321 100.75397249454517 C 0.0 **** -0.24
4802 H 92.08775901801597 113.7052386748072 99.76226960516158 H 0.0 **** 0.06
4803 H 92.39737569567775 112.27998053701624 100.78249562708004 H 0.0 **** 0.06
4804 H 91.68617501101947 113.74787520695072 101.49579658760945 H 0.0 **** 0.06
4805 H 93.38817639472494 113.74652961998767 100.97623831055296 H 0.0 **** 0.06
4806 C 108.65060119053452 121.2750639961965 9.820829654094737 C 0.0 **** -0.24
4807 H 109.61000493370663 121.77963701131152 9.700046817958508 H 0.0 **** 0.06
4808 H 108.54823462348496 120.50270309701757 9.057806933079611 H 0.0 **** 0.06
4809 H 107.84412801600858 122.0005810383682 9.714872434989232 H 0.0 **** 0.06
4810 H 108.60255228857771 120.81960052727091 10.809350861102388 H 0.0 **** 0.06
4811 C 126.52685589343719 142.923817289202 139.67539089989126 C 0.0 **** -0.24
4812 H 127.10496032462166 143.8472919611667 139.67796886296907 H 0.0 **** 0.06
4813 H 126.73534395263437 142.36111497534128 140.58546328253044 H 0.0 **** 0.06
4814 H 126.80197054082481 142.3252144232154 138.8073768400553 H 0.0 **** 0.06
4815 H 125.46384996654889 143.1605018392806 139.63076226786055 H 0.0 **** 0.06
4816 C 87.59482775050338 20.173063002638088 144.76598791773685 C 0.0 **** -0.24
4817 H 88.44941051466998 19.775550593545177 145.31437931272893 H 0.0 **** 0.06
4818 H 87.54274941714385 19.70165127484654 143.7842054781664 H 0.0 **** 0.06
4819 H 87.70987821950365 21.250653505999054 144.64588785007882 H 0.0 **** 0.06
4820 H 86.67945724224899 19.96419049997175 145.3190475675479 H 0.0 **** 0.06
4821 C 116.31245323521792 108.59314671351393 26.23218686376709 C 0.0 **** -0.24
4822 H 116.43757879917665 108.77386599847688 27.300152248535063 H 0.0 **** 0.06
4823 H 115.29660917744111 108.24682515377276 26.03819154028575 H 0.0 **** 0.06
4824 H 117.02337954953232 107.83341783192367 25.907279644053034 H 0.0 **** 0.06
4825 H 116.49312093766098 109.5180093042112 25.68324213009336 H 0.0 **** 0.06
4826 C 47.39311399912475 41.83865636566472 47.88969640651358 C 0.0 **** -0.24
4827 H 47.246520983787576 41.16221309650382 47.047276727517996 H 0.0 **** 0.06
4828 H 48.06469947980537 41.37519099864849 48.61370315758356 H 0.0 **** 0.06
4829 H 46.433105517974724 42.04364029970344 48.36292592434904 H 0.0 **** 0.06
4830 H 47.82994991596007 42.77197344318478 47.534557690192415 H 0.0 **** 0.06
4831 C 8.565567452275104 33.02767700734569 34.859974865034275 C 0.0 **** -0.24
4832 H 8.039930648838606 32.849206451569955 33.921704581346376 H 0.0 **** 0.06
4833 H 8.144909902004713 33.90581673088127 35.35006848391322 H 0.0 **** 0.06
4834 H 9.623378655285535 33.195427190104965 34.65720100918702 H 0.0 **** 0.06
4835 H 8.452943501804498 32.15964493836191 35.50974257795693 H 0.0 **** 0.06
4836 C 134.79923658948175 114.22489059635649 29.732819001688313 C 0.0 **** -0.24
4837 H 134.696002908508 115.00231092624819 30.489354065559695 H 0.0 **** 0.06
4838 H 135.4855976627368 113.45779801823181 30.093394115629195 H 0.0 **** 0.06
4839 H 135.1917371260976 114.6616036989883 28.814358386438926 H 0.0 **** 0.06
4840 H 133.82518299289123 113.77785661928175 29.5354029727564 H 0.0 **** 0.06
4841 C 100.00239241948604 127.2381259388057 67.16571718004928 C 0.0 **** -0.24
4842 H 98.96535490906635 126.90213393783105 67.18572971235182 H 0.0 **** 0.06
4843 H 100.62403434628467 126.46851256933383 66.70659460876402 H 0.0 **** 0.06
4844 H 100.34334704677016 127.42291899171514 68.18375220351248 H 0.0 **** 0.06
4845 H 100.07397419349341 128.15835947550977 66.58467307853078 H 0.0 **** 0.06
4846 C 138.60761783060994 111.45875867148756 6.005280206652344 C 0.0 **** -0.24
4847 H 138.57509851149132 112.5154361783569 6.271755458793734 H 0.0 **** 0.06
4848 H 137.70466709493056 111.19429509538831 5.455439448143636 H 0.0 **** 0.06
4849 H 138.66989653579404 110.8578871420303 6.91305093895204 H 0.0 **** 0.06
4850 H 139.48204754853236 111.26834493785297 5.382488746095277 H 0.0 **** 0.06
4851 C 120.97620315485902 43.79893934493647 36.655874379859824 C 0.0 **** -0.24
4852 H 120.480567408434 43.18602646352615 37.4083362576132 H 0.0 **** 0.06
4853 H 121.02867589372211 43.24795089959531 35.71599709453787 H 0.0 **** 0.06
4854 H 121.98436660732013 44.042497101133975 36.992061822538645 H 0.0 **** 0.06
4855 H 120.41120270996002 44.719282915490325 36.5071023447493 H 0.0 **** 0.06
4856 C 120.5688478698849 119.58304113368155 99.98209110463807 C 0.0 **** -0.24
4857 H 120.98201636215077 119.89224645511882 100.94312223889267 H 0.0 **** 0.06
4858 H 120.61063465891499 120.418417539583 99.28364640993641 H 0.0 **** 0.06
4859 H 119.53302708029611 119.27137793717822 100.11632313923809 H 0.0 **** 0.06
4860 H 121.15098786963893 118.74988199311201 99.58878238688965 H 0.0 **** 0.06
4861 C 99.48494222065528 127.2201101462487 60.35902909537691 C 0.0 **** -0.24
4862 H 99.37596239324094 128.29327532595423 60.20054308385306 H 0.0 **** 0.06
4863 H 98.82061653140987 126.68417792922712 59.68037971748896 H 0.0 **** 0.06
4864 H 99.22706881234149 126.97667042353771 61.388623289064114 H 0.0 **** 0.06
4865 H 100.51705542578568 126.92839660227148 60.16299219503949 H 0.0 **** 0.06
4866 C 38.35166764244693 132.39235253659064 58.51336160706501 C 0.0 **** -0.24
4867 H 37.57630120139066 131.95182909239426 59.140857354496916 H 0.0 **** 0.06
4868 H 37.88969567141436 132.87618286388326 57.651967347576715 H 0.0 **** 0.06
4869 H 39.030325677450264 131.61174588846734 58.172138289267195 H 0.0 **** 0.06
4870 H 38.90780314704077 133.13196281601145 59.08996186811015 H 0.0 **** 0.06
4871 C 117.71699058464056 92.89278476229316 126.88589798927163 C 0.0 **** -0.24
4872 H 118.74005446720075 92.53051427237877 126.98572919898012 H 0.0 **** 0.06
4873 H 117.73085774574422 93.94439342318863 126.59799720765645 H 0.0 **** 0.06
4874 H 117.19796660674369 92.78423362802498 127.83820028145882 H 0.0 **** 0.06
4875 H 117.19934859682745 92.31338055727993 126.12153261329772 H 0.0 **** 0.06
4876 C 103.10114454353678 43.96271332244797 54.974646730905945 C 0.0 **** -0.24
4877 H 103.15258170143096 44.96730685850986 54.55582229744621 H 0.0 **** 0.06
4878 H 103.22072881092939 43.22944342738492 54.17636995577929 H 0.0 **** 0.06
4879 H 102.13445976735963 43.81920590215057 55.45787346981594 H 0.0 **** 0.06
4880 H 103.89680789442701 43.834897101746435 55.7085212005823 H 0.0 **** 0.06
4881 C 48.91803618931347 16.665940072673266 99.68784376519756 C 0.0 **** -0.24
4882 H 49.74178454891894 16.648516241963392 100.401121359095 H 0.0 **** 0.06
4883 H 49.298611375505544 16.454231036346016 98.68788487985135 H 0.0 **** 0.06
4884 H 48.450165659998106 17.651080220109293 99.69764249872077 H 0.0 **** 0.06
4885 H 48.182583848704994 15.910928622455799 99.96464231473288 H 0.0 **** 0.06
4886 C 30.234217557839358 48.95160296753022 18.61874808683382 C 0.0 **** -0.24
4887 H 31.044175103261544 49.64333895465579 18.853147436280096 H 0.0 **** 0.06
4888 H 29.364640609155806 49.51346135707449 18.27797694482024 H 0.0 **** 0.06
4889 H 29.97418269849807 48.38285872501575 19.510912706626357 H 0.0 **** 0.06
4890 H 30.556586167341685 48.268348925095964 17.83266328538889 H 0.0 **** 0.06
4891 C 127.84112151436327 60.43216200378109 46.22700971906836 C 0.0 **** -0.24
4892 H 127.19788946927022 61.00503063250213 45.558453811646714 H 0.0 **** 0.06
4893 H 127.35018605493028 59.493842790086234 46.48673526638768 H 0.0 **** 0.06
4894 H 128.0282007762274 61.00887094245314 47.133072115052116 H 0.0 **** 0.06
4895 H 128.78705134964682 60.22228350209457 45.7284531760406 H 0.0 **** 0.06
4896 C 88.93717055566941 20.03402664376182 48.965013988959086 C 0.0 **** -0.24
4897 H 88.25530472495805 19.38622274601488 48.414983123735325 H 0.0 **** 0.06
4898 H 88.53177672867653 21.04565997046882 48.9972131113567 H 0.0 **** 0.06
4899 H 89.90723468717047 20.047126783576346 48.466651743952696 H 0.0 **** 0.06
4900 H 89.05617559524282 19.65836939901459 49.98088075921531 H 0.0 **** 0.06
4901 C 78.57946766567292 74.3906655974265 37.516309636038386 C 0.0 **** -0.24
4902 H 78.95841141168117 74.5271974572124 38.52989863092296 H 0.0 **** 0.06
4903 H 78.61076257512707 75.34250784643277 36.9857572125365 H 0.0 **** 0.06
4904 H 77.55128107056456 74.03193827685669 37.55849862788182 H 0.0 **** 0.06
4905 H 79.1980224707473 73.66130331186773 36.993217377993574 H 0.0 **** 0.06
4906 C 15.159645547820844 53.494324944541944 19.215752822442994 C 0.0 **** -0.24
4907 H 14.73975654816934 54.11428392755761 18.423527481143296 H 0.0 **** 0.06
4908 H 14.633151662995857 52.53960548518248 19.246296328910574 H 0.0 **** 0.06
4909 H 15.046489636474064 54.002711495067985 20.173446283865673 H 0.0 **** 0.06
4910 H 16.217204243872743 53.319305817324874 19.019368542891854 H 0.0 **** 0.06
4911 C 7.829621523478579 30.901113952673512 117.30124159495047 C 0.0 **** -0.24
4912 H 7.969643583532104 30.357712341829284 118.23601078245112 H 0.0 **** 0.06
4913 H 8.49118331809882 30.488927698678452 116.5393174650033 H 0.0 **** 0.06
4914 H 8.062855040647491 31.954637398761662 117.4549535470165 H 0.0 **** 0.06
4915 H 6.794063064001648 30.80221706207024 116.97541036822336 H 0.0 **** 0.06
4916 C 40.82758555592187 128.76896547376896 49.58525911072701 C 0.0 **** -0.24
4917 H 41.5732928545014 128.6776010354966 48.795138811321465 H 0.0 **** 0.06
4918 H 41.269687967682046 129.27101662050487 50.445463140001834 H 0.0 **** 0.06
4919 H 40.486378810878364 127.77543318774389 49.878773197361625 H 0.0 **** 0.06
4920 H 39.980422736261744 129.34987059375757 49.22027513059953 H 0.0 **** 0.06
4921 C 116.6680361429688 66.0287937498576 76.66008210654829 C 0.0 **** -0.24
4922 H 115.80645655558926 66.42586019680596 76.12312423428168 H 0.0 **** 0.06
4923 H 117.10160469882827 65.20461520541275 76.09278591121517 H 0.0 **** 0.06
4924 H 116.35177732327345 65.67003761638458 77.6394427561867 H 0.0 **** 0.06
4925 H 117.41190871782409 66.81542986755183 76.78447296590204 H 0.0 **** 0.06
4926 C 119.4235572703629 16.9180671005347 93.23176236224941 C 0.0 **** -0.24
4927 H 118.73797355707627 16.365520524413 92.58902900819325 H 0.0 **** 0.06
4928 H 120.09040159180601 16.21810807980404 93.73714241825654 H 0.0 **** 0.06
4929 H 118.85477538284313 17.477815556574683 93.97334018592349 H 0.0 **** 0.06
4930 H 120.0109987007382 17.60841646800054 92.6270945379175 H 0.0 **** 0.06
4931 C 48.94793557365239 49.10881544732999 21.763532886739206 C 0.0 **** -0.24
4932 H 49.31166340843066 49.94594635749564 22.35825949651157 H 0.0 **** 0.06
4933 H 47.889890147176686 48.946717644178364 21.973068423958864 H 0.0 **** 0.06
4934 H 49.51069757340768 48.210773415554456 22.017698823044924 H 0.0 **** 0.06
4935 H 49.07894660943744 49.3315872684027 20.70430026375041 H 0.0 **** 0.06
4936 C 50.886252620737054 67.22491155806728 30.03656616713242 C 0.0 **** -0.24
4937 H 50.148752206821044 67.5645812267066 29.308657108826566 H 0.0 **** 0.06
4938 H 51.010925883003 67.9837897998795 30.808333776510658 H 0.0 **** 0.06
4939 H 51.83918191466745 67.05586685931098 29.534932281637502 H 0.0 **** 0.06
4940 H 50.54546762445996 66.29510457561122 30.49126873886241 H 0.0 **** 0.06
4941 C 25.148043698056227 59.55748833255434 45.95945594165542 C 0.0 **** -0.24
4942 H 24.872668411355306 59.61430034250772 47.0126167783703 H 0.0 **** 0.06
4943 H 25.26591495448818 58.511935262147475 45.67161723691021 H 0.0 **** 0.06
4944 H 26.08833766280779 60.08634175222521 45.80068170545516 H 0.0 **** 0.06
4945 H 24.36609137005115 60.015861915254035 45.35432447164132 H 0.0 **** 0.06
4946 C 95.95891267052343 43.57663517707512 32.974509380128225 C 0.0 **** -0.24
4947 H 96.35796137859279 44.374203480171985 32.34662651527754 H 0.0 **** 0.06
4948 H 96.75148124817578 43.18693339831165 33.613681102221946 H 0.0 **** 0.06
4949 H 95.57502337113425 42.775654437149 32.34245181062797 H 0.0 **** 0.06
4950 H 95.15342203271746 43.970375797074865 33.593380124464474 H 0.0 **** 0.06
4951 C 12.57943093818232 14.177986923398663 73.50917975354821 C 0.0 **** -0.24
4952 H 11.69755321304887 13.543171696158566 73.42182294762807 H 0.0 **** 0.06
4953 H 12.300663033799097 15.124333469947032 73.97179139454624 H 0.0 **** 0.06
4954 H 12.990715166820436 14.366338858261287 72.51719298293136 H 0.0 **** 0.06
4955 H 13.327585424597515 13.677637362047477 74.1238317426496 H 0.0 **** 0.06
4956 C 24.586701443883584 82.37508300711798 101.15113311208049 C 0.0 **** -0.24
4957 H 25.358905185372095 83.07176588524024 100.82474032790864 H 0.0 **** 0.06
4958 H 23.77472538311477 82.92845830654025 101.62396351998416 H 0.0 **** 0.06
4959 H 25.011106235401314 81.67138264102485 101.86617730552408 H 0.0 **** 0.06
4960 H 24.201878012734312 81.83048039331564 100.288711619091 H 0.0 **** 0.06
4961 C 1.3797593427186818 29.858618084435676 16.715676587373096 C 0.0 **** -0.24
4962 H 1.9903478237730319 29.04172027436914 17.101075855741016 H 0.0 **** 0.06
4963 H 0.6727742350450825 29.46887668730264 15.983142214539285 H 0.0 **** 0.06
4964 H 2.022236569261942 30.60026816882271 16.24228139232764 H 0.0 **** 0.06
4965 H 0.8335247704909428 30.321983307485908 17.536789444295763 H 0.0 **** 0.06
4966 C 111.60119534930449 123.4259443001296 98.2707350972203 C 0.0 **** -0.24
4967 H 110.83282029374782 123.03041291866961 98.93481911736048 H 0.0 **** 0.06
4968 H 112.12703545477338 122.59960775700708 97.79189376608355 H 0.0 **** 0.06
4969 H 112.30810395576212 124.02230075158397 98.84701807754848 H 0.0 **** 0.06
4970 H 111.13463490686358 124.0513086394902 97.50876610324053 H 0.0 **** 0.06
4971 C 51.9084075273567 103.20870173548603 141.65431894314096 C 0.0 **** -0.24
4972 H 52.38233250239048 103.81762157054746 142.42300910765246 H 0.0 **** 0.06
4973 H 51.27175839092044 103.8386218544948 141.0318701653214 H 0.0 **** 0.06
4974 H 51.30273222968805 102.43412545365732 142.12607626321054 H 0.0 **** 0.06
4975 H 52.67548332446762 102.7431081184046 141.0351039370137 H 0.0 **** 0.06
4976 C 135.89587405706246 107.66160453315527 88.6156727738811 C 0.0 **** -0.24
4977 H 135.31778462575963 108.53868780830132 88.32257980314853 H 0.0 **** 0.06
4978 H 135.5745811109501 107.32802689591173 89.6018683197484 H 0.0 **** 0.06
4979 H 136.95533426279846 107.91915308290535 88.64489229841024 H 0.0 **** 0.06
4980 H 135.73637576001786 106.86327577360836 87.89106227892637 H 0.0 **** 0.06
4981 C 56.18173671082525 59.18454556036957 109.43945038901528 C 0.0 **** -0.24
4982 H 55.748057875699715 58.185405614667474 109.40517345194313 H 0.0 **** 0.06
4983 H 56.794418939259344 59.34460469520735 108.55143264087094 H 0.0 **** 0.06
4984 H 56.80095286175833 59.28082149861493 110.33119261062735 H 0.0 **** 0.06
4985 H 55.383458371615575 59.92630871126741 109.469048155615 H 0.0 **** 0.06
4986 C 2.278664691229551 24.439903807349907 60.73308220882939 C 0.0 **** -0.24
4987 H 1.8400654541947006 24.087969008252074 61.667053044301554 H 0.0 **** 0.06
4988 H 1.5110134855933381 24.465855900495967 59.958843829029206 H 0.0 **** 0.06
4989 H 3.0790000201722307 23.764238740655685 60.43023240310339 H 0.0 **** 0.06
4990 H 2.683243247374378 25.441091559928964 60.87720062152388 H 0.0 **** 0.06
4991 C 140.58913000444863 109.75797015357877 65.8768309766084 C 0.0 **** -0.24
4992 H 140.52796068055682 110.66074756689697 66.48437450719855 H 0.0 **** 0.06
4993 H 139.85869015843878 109.03027567210184 66.23153691701968 H 0.0 **** 0.06
4994 H 141.59121579739713 109.33509008568556 65.95470555750201 H 0.0 **** 0.06
4995 H 140.37993958496804 110.00609398885005 64.83559378543532 H 0.0 **** 0.06
4996 C 109.98306604481989 22.327036332210945 64.79922908042398 C 0.0 **** -0.24
4997 H 108.91669062158998 22.480976256295065 64.96306691249073 H 0.0 **** 0.06
4998 H 110.50933476534676 23.275145706408956 64.91290746421133 H 0.0 **** 0.06
4999 H 110.14433133474442 21.941117515478098 63.793022820006925 H 0.0 **** 0.06
5000 H 110.36190745759855 21.610905850661496 65.52791912498705 H 0.0 **** 0.06
5001 C 4.14532886746224 55.7651805726982 52.44340351233822 C 0.0 **** -0.24
5002 H 4.256478103725755 55.37476738805293 53.455310284949434 H 0.0 **** 0.06
5003 H 4.515176932437839 56.790577697282245 52.40775097929949 H 0.0 **** 0.06
5004 H 3.0925128336607486 55.74790010042976 52.16056308452835 H 0.0 **** 0.06
5005 H 4.717964789232184 55.14829045970663 51.75080868978816 H 0.0 **** 0.06
5006 C 43.465294999946366 73.97122254076031 104.85827901062139 C 0.0 **** -0.24
5007 H 43.882128627656925 74.0199105881789 105.8639673680491 H 0.0 **** 0.06
5008 H 44.08812809263982 74.55436485454678 104.17933798711788 H 0.0 **** 0.06
5009 H 42.45344751131448 74.3782502073839 104.86453183661432 H 0.0 **** 0.06
5010 H 43.43743965073463 72.93321252675372 104.52580763399622 H 0.0 **** 0.06
5011 C 124.53215560215085 123.04812323728913 9.920975586136535 C 0.0 **** -0.24
5012 H 123.68751022188638 123.28812987319846 9.27368200790847 H 0.0 **** 0.06
5013 H 124.6734590096751 121.96785550224088 9.947335477217194 H 0.0 **** 0.06
5014 H 124.33355822895099 123.41460042148218 10.927451812272004 H 0.0 **** 0.06
5015 H 125.43220464668526 123.52300764657451 9.531937848241363 H 0.0 **** 0.06
5016 C 119.34896849152622 40.856831346472646 144.93590670172753 C 0.0 **** -0.24
5017 H 119.16576466395267 40.64473652067575 143.88226109446614 H 0.0 **** 0.06
5018 H 119.6570225330016 41.89664606114242 145.0487162546974 H 0.0 **** 0.06
5019 H 120.137762602023 40.201743180803994 145.30561637073308 H 0.0 **** 0.06
5020 H 118.43582193747883 40.684104417307466 145.504636543128 H 0.0 **** 0.06
5021 C 85.19477013209034 17.050994533033418 82.98760676661225 C 0.0 **** -0.24
5022 H 84.57408434077162 16.363671233826977 82.41098920117128 H 0.0 **** 0.06
5023 H 84.73711682427943 17.222586920927426 83.96193494705936 H 0.0 **** 0.06
5024 H 85.28166952732438 17.997114724129517 82.45380347383949 H 0.0 **** 0.06
5025 H 86.18567089045273 16.616999438806857 83.12285786760734 H 0.0 **** 0.06
5026 C 19.813574924416287 43.03810076051366 51.78859228345746 C 0.0 **** -0.24
5027 H 18.95071169269545 42.81510995338127 52.41698713141315 H 0.0 **** 0.06
5028 H 19.540934292830627 42.91159497317008 50.740809256371165 H 0.0 **** 0.06
5029 H 20.62878937736565 42.35855752949496 52.03712455531891 H 0.0 **** 0.06
5030 H 20.13096344372326 44.06600390115673 51.96096255622044 H 0.0 **** 0.06
5031 C 68.30244282973052 56.57428943159687 136.04507807808045 C 0.0 **** -0.24
5032 H 69.04190776225732 57.35594629212768 135.8736691461483 H 0.0 **** 0.06
5033 H 68.09799542336151 56.49474609473353 137.11247303022435 H 0.0 **** 0.06
5034 H 68.68807015397027 55.62256919456814 135.67719476969046 H 0.0 **** 0.06
5035 H 67.38198784842444 56.821800193935445 135.51572189063813 H 0.0 **** 0.06
5036 C 84.2332361535373 55.02271592951837 101.88623399851464 C 0.0 **** -0.24
5037 H 85.13758750775179 54.97936426749854 102.49289876884677 H 0.0 **** 0.06
5038 H 84.36018087448959 54.402451227455174 100.99832934014812 H 0.0 **** 0.06
5039 H 84.0466392288984 56.05397394059045 101.58600006637738 H 0.0 **** 0.06
5040 H 83.38804358112398 54.65509154840241 102.46903308246995 H 0.0 **** 0.06
5041 C 62.924338136481964 77.87906224604141 107.91758547106942 C 0.0 **** -0.24
5042 H 63.341618971552776 76.98532975816974 107.45480280586757 H 0.0 **** 0.06
5043 H 62.92007515384498 77.75868751310087 109.00039875072962 H 0.0 **** 0.06
5044 H 61.90475912035342 78.02896771948393 107.56410445954573 H 0.0 **** 0.06
5045 H 63.53203177316979 78.74371680952537 107.64980599272148 H 0.0 **** 0.06
5046 C 84.47464630861984 49.208572632077804 108.67740357773238 C 0.0 **** -0.24
5047 H 84.84656029527564 50.17540622548779 108.33894728010165 H 0.0 **** 0.06
5048 H 83.47879610951492 49.331778398541985 109.10503974238367 H 0.0 **** 0.06
5049 H 85.14797308339647 48.805072799967405 109.43446955233475 H 0.0 **** 0.06
5050 H 84.42418196814378 48.5224314415474 107.8324571432754 H 0.0 **** 0.06
5051 C 109.24429976680172 86.71340709103956 9.00417794351523 C 0.0 **** -0.24
5052 H 109.02635094043326 87.51481436927229 8.297819956461154 H 0.0 **** 0.06
5053 H 109.62899076757013 85.84774888310993 8.465209868538722 H 0.0 **** 0.06
5054 H 108.33056561126229 86.43752229503 9.532097861211156 H 0.0 **** 0.06
5055 H 109.98861289509041 87.05564539516217 9.722768773155536 H 0.0 **** 0.06
5056 C 44.60127067958007 56.61057179455824 54.40124925561476 C 0.0 **** -0.24
5057 H 45.33254679882826 57.367993656379554 54.11984343306966 H 0.0 **** 0.06
5058 H 45.10471932723077 55.79492340732651 54.92080973284432 H 0.0 **** 0.06
5059 H 44.11402971205163 56.224821145245755 53.50491971879916 H 0.0 **** 0.06
5060 H 43.8531841109553 57.053401239565886 55.05885891823833 H 0.0 **** 0.06
5061 C 41.022961527582794 48.80572070913523 64.67228814972347 C 0.0 **** -0.24
5062 H 40.949895725159195 49.87306132345071 64.87764451764407 H 0.0 **** 0.06
5063 H 41.25748604134202 48.65312217052589 63.61782860790642 H 0.0 **** 0.06
5064 H 40.07316492392039 48.32349263659758 64.90709757883032 H 0.0 **** 0.06
5065 H 41.81257828172147 48.371123860179154 65.28674476864805 H 0.0 **** 0.06
5066 C 75.44713781152365 77.55387927845518 62.238489027891035 C 0.0 **** -0.24
5067 H 74.80827424475679 77.40155057271267 61.36886946597946 H 0.0 **** 0.06
5068 H 76.0180499011868 76.64509351946631 62.43387277786286 H 0.0 **** 0.06
5069 H 74.83070078713197 77.78980577204871 63.10546823545212 H 0.0 **** 0.06
5070 H 76.13344550942749 78.37840269996163 62.044376208658775 H 0.0 **** 0.06
5071 C 124.57411925679376 65.41279148228449 54.729179077994786 C 0.0 **** -0.24
5072 H 125.36713574146219 66.04556135615985 55.127141410744784 H 0.0 **** 0.06
5073 H 123.65093975171713 65.59751646999706 55.27991426501538 H 0.0 **** 0.06
5074 H 124.85723920053796 64.36537643082318 54.8337482264111 H 0.0 **** 0.06
5075 H 124.41966361706315 65.64328041311364 53.674353371224484 H 0.0 **** 0.06
5076 C 84.13039289408654 92.14826715451076 123.45453973552446 C 0.0 **** -0.24
5077 H 84.13586518811978 93.14357419720014 123.89964968956235 H 0.0 **** 0.06
5078 H 85.0929125012961 91.66732164904087 123.63053220742626 H 0.0 **** 0.06
5079 H 83.95705432390781 92.23174170795673 122.38186428808325 H 0.0 **** 0.06
5080 H 83.3380326823459 91.55256289729843 123.90655697174583 H 0.0 **** 0.06
5081 C 79.5896798836308 46.68913625506298 102.36688117965646 C 0.0 **** -0.24
5082 H 78.76559171051102 46.14974470165906 101.89933614872439 H 0.0 **** 0.06
5083 H 79.53325456558767 47.743734242048205 102.09552863285774 H 0.0 **** 0.06
5084 H 80.53727225001845 46.274632058132 102.02250945526725 H 0.0 **** 0.06
5085 H 79.52075971648733 46.58765662825138 103.45022453132212 H 0.0 **** 0.06
5086 C 92.68824068316391 76.56009356999937 137.42992340430126 C 0.0 **** -0.24
5087 H 92.7235482654779 77.64856952335828 137.38548957053965 H 0.0 **** 0.06
5088 H 92.68791358505692 76.1550838884927 136.4177317388933 H 0.0 **** 0.06
5089 H 91.78082252025955 76.24781302541834 137.94666127658633 H 0.0 **** 0.06
5090 H 93.5598268715955 76.18942417214475 137.96971931454019 H 0.0 **** 0.06
5091 C 114.54905425545405 15.817341523771603 42.27596029620301 C 0.0 **** -0.24
5092 H 113.73137519602511 15.994048585475163 41.576310726535866 H 0.0 **** 0.06
5093 H 115.25720427052687 16.645322082272934 42.22304789032927 H 0.0 **** 0.06
5094 H 115.05685227928359 14.888393215926357 42.01430755764284 H 0.0 **** 0.06
5095 H 114.15164038089932 15.742594852188603 43.28766825755953 H 0.0 **** 0.06
5096 C 137.58823359838607 111.12872020585671 18.346570515293195 C 0.0 **** -0.24
5097 H 138.09835901151556 110.16706392091463 18.413669029061907 H 0.0 **** 0.06
5098 H 137.03163046669792 111.18028249899662 17.411278506164443 H 0.0 **** 0.06
5099 H 138.32433358556014 111.9324837605106 18.377162747013124 H 0.0 **** 0.06
5100 H 136.9009279653768 111.23442480430033 19.18566906809705 H 0.0 **** 0.06
5101 C 144.06646277512073 36.039310648296066 30.77878678842785 C 0.0 **** -0.24
5102 H 144.69917128072126 36.613423468427364 30.101060912628554 H 0.0 **** 0.06
5103 H 143.03752157424967 36.388878859054195 30.698537582316348 H 0.0 **** 0.06
5104 H 144.41782951609102 36.17091679339237 31.80158788338929 H 0.0 **** 0.06
5105 H 144.114141780677 34.98391346914181 30.51149597244799 H 0.0 **** 0.06
5106 C 61.81745003447281 53.16147569148609 107.62127245481635 C 0.0 **** -0.24
5107 H 61.24225834782585 53.84944693604848 107.0015467159701 H 0.0 **** 0.06
5108 H 62.88182452559582 53.32219245168983 107.4504217779555 H 0.0 **** 0.06
5109 H 61.55788845436845 52.13493548989112 107.36175576037463 H 0.0 **** 0.06
5110 H 61.58727225332852 53.340513444486646 108.67189922074068 H 0.0 **** 0.06
5111 C 124.85197129938413 86.74587823047432 93.32110355313705 C 0.0 **** -0.24
5112 H 125.8770837104772 87.10890295041008 93.24620695578862 H 0.0 **** 0.06
5113 H 124.66748281879532 86.38560564666977 94.33393998158233 H 0.0 **** 0.06
5114 H 124.70328694704065 85.93043322772621 92.61295926996722 H 0.0 **** 0.06
5115 H 124.16182491700536 87.5572031821531 93.09226378745639 H 0.0 **** 0.06
5116 C 129.17416056008696 80.4010217771646 76.20478687104253 C 0.0 **** -0.24
5117 H 128.65125696857118 81.08158125450916 76.87791137466115 H 0.0 **** 0.06
5118 H 129.93617218857335 80.95223760059753 75.65360241977476 H 0.0 **** 0.06
5119 H 128.46193181292378 79.96538594123143 75.50446301712975 H 0.0 **** 0.06
5120 H 129.64590449055945 79.6086543834715 76.78454061534279 H 0.0 **** 0.06
5121 C 75.37702477589664 112.73092390754142 27.84211801722941 C 0.0 **** -0.24
5122 H 74.76820124039506 113.55908550494543 27.477678418084913 H 0.0 **** 0.06
5123 H 76.27548580767274 112.64505141490586 27.229919812245484 H 0.0 **** 0.06
5124 H 74.80492933866265 111.80552827935229 27.781137639981935 H 0.0 **** 0.06
5125 H 75.65888539357059 112.91670209480382 28.878153209650925 H 0.0 **** 0.06
5126 C 138.96412568738467 52.99426166174284 17.22522587931516 C 0.0 **** -0.24
5127 H 139.96964441882767 52.57505688417754 17.26183644187759 H 0.0 **** 0.06
5128 H 138.34730104096207 52.3999181467554 16.550579252190147 H 0.0 **** 0.06
5129 H 139.0115071273246 54.02165006882677 16.865217650358204 H 0.0 **** 0.06
5130 H 138.5283748818651 52.97918137817888 18.224434934227105 H 0.0 **** 0.06
5131 C 7.907728865908439 141.61841110906775 56.21875746355488 C 0.0 **** -0.24
5132 H 8.45007026503282 142.55562084875126 56.34390381583118 H 0.0 **** 0.06
5133 H 7.284182971432529 141.67653727073238 55.32655470178574 H 0.0 **** 0.06
5134 H 7.279083274139339 141.44428587733407 57.091808437959074 H 0.0 **** 0.06
5135 H 8.61957753707236 140.79859261922334 56.112502592283505 H 0.0 **** 0.06
5136 C 4.7204357061953885 112.93868263447189 144.09479469431693 C 0.0 **** -0.24
5137 H 4.230460184172443 113.72226645171156 144.67239080570502 H 0.0 **** 0.06
5138 H 4.018464966590301 112.1226407211887 143.92200698592777 H 0.0 **** 0.06
5139 H 5.582262959546284 112.56530210962109 144.6483059266491 H 0.0 **** 0.06
5140 H 5.049259112191606 113.344649088773 143.1382931051236 H 0.0 **** 0.06
5141 C 91.12663968060643 88.48713526030355 59.7876941928332 C 0.0 **** -0.24
5142 H 90.34248055856716 87.89254354495807 60.25512441097921 H 0.0 **** 0.06
5143 H 91.404233102068 89.30700954141446 60.44938136014295 H 0.0 **** 0.06
5144 H 90.7624508886716 88.88934981012375 58.8418464688139 H 0.0 **** 0.06
5145 H 91.99825012790404 87.85817416899619 59.60296702156718 H 0.0 **** 0.06
5146 C 116.62906100152816 53.114729577367626 45.35197459038986 C 0.0 **** -0.24
5147 H 116.24030102487012 52.10379227548725 45.47565709834042 H 0.0 **** 0.06
5148 H 115.99405635870704 53.816106691791774 45.893745915285606 H 0.0 **** 0.06
5149 H 116.63793234379602 53.37389222135761 44.29338264392342 H 0.0 **** 0.06
5150 H 117.64461229109025 53.164717819868926 45.746956522654656 H 0.0 **** 0.06
5151 C 130.9867249059308 14.68208077077432 130.86227010340787 C 0.0 **** -0.24
5152 H 131.2799111243829 14.901377123910898 129.83533686762325 H 0.0 **** 0.06
5153 H 129.97859056582715 14.266278139706671 130.8713955334003 H 0.0 **** 0.06
5154 H 131.00645554069533 15.599358654547665 131.45012114734038 H 0.0 **** 0.06
5155 H 131.68149657632821 13.959998537624074 131.2925159864903 H 0.0 **** 0.06
5156 C 101.30328498983992 125.31137705572462 94.10266610760073 C 0.0 **** -0.24
5157 H 101.45883501391219 126.3070735430556 94.51725091763305 H 0.0 **** 0.06
5158 H 101.77091402300559 124.57037021130958 94.75121591496719 H 0.0 **** 0.06
5159 H 101.75009117319567 125.25755414478442 93.1086915954973 H 0.0 **** 0.06
5160 H 100.2343291774416 125.11104676693125 94.03134897462918 H 0.0 **** 0.06
5161 C 78.86557744977098 47.57915995352653 138.61612326446073 C 0.0 **** -0.24
5162 H 77.98493687209944 48.09082579222269 139.00430380883333 H 0.0 **** 0.06
5163 H 79.63140919611219 48.31356744508733 138.3657629483841 H 0.0 **** 0.06
5164 H 78.59374803808532 47.01798060279222 137.7211866887462 H 0.0 **** 0.06
5165 H 79.2501890382604 46.89420664218335 139.37102838047986 H 0.0 **** 0.06
5166 C 50.62264420415043 75.21535636039818 129.4134232183597 C 0.0 **** -0.24
5167 H 50.53038766727566 74.28791811818914 128.8479853822231 H 0.0 **** 0.06
5168 H 49.62906131340816 75.60693530960711 129.6341876030224 H 0.0 **** 0.06
5169 H 51.17974518359249 75.94549027550929 128.82596693810768 H 0.0 **** 0.06
5170 H 51.15230995293875 75.02010333299665 130.34598064626766 H 0.0 **** 0.06
5171 C 37.527826480541506 128.1980301048047 68.41105280655329 C 0.0 **** -0.24
5172 H 37.87012433516597 127.85884456439256 69.38912094128925 H 0.0 **** 0.06
5173 H 36.93323822087652 127.41314499401977 67.94376161927602 H 0.0 **** 0.06
5174 H 38.388547998929965 128.42465999829176 67.7827827975652 H 0.0 **** 0.06
5175 H 36.918270453590964 129.093825862536 68.53055307856353 H 0.0 **** 0.06
5176 C 17.335704804880038 7.09974856515295 81.8168509809095 C 0.0 **** -0.24
5177 H 16.571537660194508 7.132731944142584 82.59347416601 H 0.0 **** 0.06
5178 H 17.094956917044527 7.8262650694756 81.04033559234102 H 0.0 **** 0.06
5179 H 17.36971985841413 6.100781160860954 81.3829754636735 H 0.0 **** 0.06
5180 H 18.305985041167958 7.340001019371812 82.25161864469236 H 0.0 **** 0.06
5181 C 88.19174299502032 5.946357295376629 32.747854759403396 C 0.0 **** -0.24
5182 H 88.88859878254303 6.458353276971906 32.08485929329672 H 0.0 **** 0.06
5183 H 87.56133256660513 6.680449286084269 33.249375970853194 H 0.0 **** 0.06
5184 H 88.74954231900244 5.3768609529928995 33.4921979518999 H 0.0 **** 0.06
5185 H 87.56737619129956 5.2684059305262 32.16535500286392 H 0.0 **** 0.06
5186 C 83.28652731577824 137.44531947901967 97.42331633543786 C 0.0 **** -0.24
5187 H 83.5394016092375 136.45313462341497 97.79789439924622 H 0.0 **** 0.06
5188 H 82.69034266536173 137.97298552246704 98.16735549949277 H 0.0 **** 0.06
5189 H 82.7154329190052 137.35100338482036 96.49975120127561 H 0.0 **** 0.06
5190 H 84.2026211173862 138.00377414822523 97.2282125888427 H 0.0 **** 0.06
5191 C 118.79259198178542 130.58094927240475 136.287534473152 C 0.0 **** -0.24
5192 H 118.60993938946709 131.28140821251677 137.10264932021323 H 0.0 **** 0.06
5193 H 119.56934075068764 130.9790412895983 135.63514274807534 H 0.0 **** 0.06
5194 H 117.87489061480036 130.44088805354525 135.71656254800666 H 0.0 **** 0.06
5195 H 119.11571418479136 129.62412912356885 136.6984251753509 H 0.0 **** 0.06
5196 C 117.4622382434049 107.95820866860724 51.31806546511257 C 0.0 **** -0.24
5197 H 116.90146122753532 107.89169142708333 52.25050179084552 H 0.0 **** 0.06
5198 H 118.5265429096649 107.84803311135302 51.525168835631405 H 0.0 **** 0.06
5199 H 117.27991934554552 108.92741250761775 50.852974431599364 H 0.0 **** 0.06
5200 H 117.13896860088482 107.16584447634033 50.64230096415427 H 0.0 **** 0.06
5201 C 63.35148618030644 75.70342200594035 43.650779876318325 C 0.0 **** -0.24
5202 H 63.18178266296468 74.90721540577226 42.926151936909264 H 0.0 **** 0.06
5203 H 62.4097934770831 76.21023721326854 43.860004791221115 H 0.0 **** 0.06
5204 H 64.06705102490128 76.41775209261915 43.24384699756985 H 0.0 **** 0.06
5205 H 63.747970479465494 75.27638731584196 44.57269068029149 H 0.0 **** 0.06
5206 C 30.594843727982607 132.6107754160862 87.851648291526 C 0.0 **** -0.24
5207 H 30.71331249453334 131.5277644842502 87.86937771863954 H 0.0 **** 0.06
5208 H 29.539089644748117 132.85752148051523 87.7327127658379 H 0.0 **** 0.06
5209 H 31.160763049592447 133.02501327758495 87.01693742320917 H 0.0 **** 0.06
5210 H 30.96313850062569 133.03296485358084 88.78597097709176 H 0.0 **** 0.06
5211 C 42.20275716578166 140.56809719811096 137.6005659592117 C 0.0 **** -0.24
5212 H 42.34612780038984 141.23303635093959 136.74901462835564 H 0.0 **** 0.06
5213 H 42.76284064450252 140.948499939774 138.45543097493248 H 0.0 **** 0.06
5214 H 42.55971514855993 139.57077377182122 137.3458016971783 H 0.0 **** 0.06
5215 H 41.1427909544457 140.52274274068094 137.85071092291673 H 0.0 **** 0.06
5216 C 128.7250175774358 11.488287818844242 10.8868443030562 C 0.0 **** -0.24
5217 H 128.59965409010027 10.938092972032983 11.819039289693066 H 0.0 **** 0.06
5218 H 127.74757345428705 11.760431702921508 10.49014727353078 H 0.0 **** 0.06
5219 H 129.24928937165436 10.862556860382625 10.164444305269114 H 0.0 **** 0.06
5220 H 129.30718228723845 12.391158540243893 11.073784529840076 H 0.0 **** 0.06
5221 C 86.86229608999301 4.780396712455023 77.12613804986067 C 0.0 **** -0.24
5222 H 87.59807332545294 4.044421870463985 76.80292641403001 H 0.0 **** 0.06
5223 H 85.89146312375976 4.535926588016135 76.69539033451099 H 0.0 **** 0.06
5224 H 87.16901816132565 5.7722724691492715 76.7914187187415 H 0.0 **** 0.06
5225 H 86.79125118481487 4.770354464150557 78.21398854115662 H 0.0 **** 0.06
5226 C 89.81398452145828 36.351502078148656 27.93241825475289 C 0.0 **** -0.24
5227 H 89.55323768724259 35.79342558304589 28.831557065593216 H 0.0 **** 0.06
5228 H 90.62313185847796 35.83911287862932 27.40959906916555 H 0.0 **** 0.06
5229 H 90.13817779775309 37.35513737431219 28.208499457153295 H 0.0 **** 0.06
5230 H 88.94401938829282 36.417290904836165 27.279941940277723 H 0.0 **** 0.06
5231 C 112.86614521995602 136.3541397985861 14.085602230634805 C 0.0 **** -0.24
5232 H 113.79449292919594 136.2627296460556 13.521303875412144 H 0.0 **** 0.06
5233 H 113.08907112149205 136.68785472870573 15.099580205136164 H 0.0 **** 0.06
5234 H 112.36772613790055 135.38511278640917 14.124111974369015 H 0.0 **** 0.06
5235 H 112.21457975310233 137.07990692786905 13.598970529899248 H 0.0 **** 0.06
5236 C 14.902726146591135 50.17289519933793 130.06407003302698 C 0.0 **** -0.24
5237 H 15.627057592490473 50.828736754554654 130.54960665718284 H 0.0 **** 0.06
5238 H 14.911691113711072 49.19785563441414 130.5520776241005 H 0.0 **** 0.06
5239 H 15.166451994567183 50.0559930446766 129.0135047530648 H 0.0 **** 0.06
5240 H 13.90753262765054 50.61082304234027 130.14261283572895 H 0.0 **** 0.06
5241 C 144.13150108601982 135.15881056714264 100.40987309601553 C 0.0 **** -0.24
5242 H 143.5219229774991 135.61233201326567 99.62866780944444 H 0.0 **** 0.06
5243 H 143.49135658219353 134.85380461610285 101.23840513032016 H 0.0 **** 0.06
5244 H 144.86486055856471 135.8837966357638 100.76444329516279 H 0.0 **** 0.06
5245 H 144.64744400057577 134.28763508503133 100.00861881332104 H 0.0 **** 0.06
5246 C 26.031426606934744 11.184773834148402 119.70063707585673 C 0.0 **** -0.24
5247 H 25.713810113389115 11.35703069100228 118.67169330379333 H 0.0 **** 0.06
5248 H 25.381048681265582 10.441675301742585 120.16182577013673 H 0.0 **** 0.06
5249 H 25.971587512815844 12.117766446089625 120.25951263521402 H 0.0 **** 0.06
5250 H 27.059632345826984 10.821869031742132 119.70663674579673 H 0.0 **** 0.06
5251 C 33.80639379122033 2.5301584338714207 16.63852466615168 C 0.0 **** -0.24
5252 H 33.307461576157664 3.157124680922905 17.377711976674533 H 0.0 **** 0.06
5253 H 34.303640787551444 1.7012569987425543 17.141863233656835 H 0.0 **** 0.06
5254 H 34.5437480527583 3.124065803629829 16.098846422499406 H 0.0 **** 0.06
5255 H 33.069108042907175 2.140520518794247 15.937069116380826 H 0.0 **** 0.06
5256 C 59.257578749855014 135.93501061941734 15.420332083403736 C 0.0 **** -0.24
5257 H 59.127666511003895 136.05124842425863 16.4963657656007 H 0.0 **** 0.06
5258 H 58.95508342063087 134.930502958978 15.124768514328622 H 0.0 **** 0.06
5259 H 60.305361515578056 136.0901277838832 15.162342057286168 H 0.0 **** 0.06
5260 H 58.64210169072197 136.66877567184372 14.898636012703577 H 0.0 **** 0.06
5261 C 92.3766994193706 42.34000408080635 109.69461067303827 C 0.0 **** -0.24
5262 H 92.33275946490028 43.13195377833182 110.44228563901505 H 0.0 **** 0.06
5263 H 91.93833404394161 42.696201157107396 108.76194708320052 H 0.0 **** 0.06
5264 H 91.81978241247066 41.47308443458223 110.04988474067075 H 0.0 **** 0.06
5265 H 93.41592175616978 42.05877695320396 109.52432522926686 H 0.0 **** 0.06
5266 C 74.61192915875675 13.235652860779425 2.5667006553068177 C 0.0 **** -0.24
5267 H 75.00684816683842 13.733804554556599 1.6812822442871358 H 0.0 **** 0.06
5268 H 73.9928255789513 12.392258934072174 2.261890365952169 H 0.0 **** 0.06
5269 H 74.01019578205668 13.9404714172085 3.140555728389625 H 0.0 **** 0.06
5270 H 75.43847819559912 12.878546972234432 3.1812036903481626 H 0.0 **** 0.06
5271 C 5.128331377256529 63.69279894406576 126.9039002457646 C 0.0 **** -0.24
5272 H 5.354735132955568 62.97554023696367 127.69326848321953 H 0.0 **** 0.06
5273 H 5.665060407128408 63.41486276870127 125.99619854508106 H 0.0 **** 0.06
5274 H 5.436524423565402 64.6892942793352 127.21884777954568 H 0.0 **** 0.06
5275 H 4.056071756649203 63.68848887097079 126.70755199682414 H 0.0 **** 0.06
5276 C 55.618819123658085 138.29771831519102 122.93332126570436 C 0.0 **** -0.24
5277 H 55.37928187564492 137.4303991120146 122.31893689190446 H 0.0 **** 0.06
5278 H 54.70677152488949 138.85784815959076 123.14284857061517 H 0.0 **** 0.06
5279 H 56.32288891804298 138.93707734224307 122.40065470858883 H 0.0 **** 0.06
5280 H 56.065006128094936 137.96689611224522 123.87019620031128 H 0.0 **** 0.06
5281 C 43.94181985877492 47.56506034550185 106.29941858579107 C 0.0 **** -0.24
5282 H 43.59977932521798 47.0519166360133 105.40095062351341 H 0.0 **** 0.06
5283 H 43.77784746788902 48.63793643684642 106.19016694057834 H 0.0 **** 0.06
5284 H 45.004878537519005 47.37297431836477 106.44628628196736 H 0.0 **** 0.06
5285 H 43.384027668063766 47.19817130916084 107.1612029073822 H 0.0 **** 0.06
5286 C 127.54856576867269 80.89731784520983 126.97520984022262 C 0.0 **** -0.24
5287 H 127.36068972756127 80.2991899902056 127.86669766721448 H 0.0 **** 0.06
5288 H 126.93038319734734 80.53166409153891 126.15549737641723 H 0.0 **** 0.06
5289 H 128.60070516250062 80.81753400938337 126.70109462836334 H 0.0 **** 0.06
5290 H 127.30409620891695 81.93911211702238 127.17935725778321 H 0.0 **** 0.06
5291 C 60.50903782312386 56.82671847043429 65.27582742194816 C 0.0 **** -0.24
5292 H 61.26296480246489 57.33593105307122 64.67711424594273 H 0.0 **** 0.06
5293 H 59.586060085941625 56.74095600919948 64.70190511328911 H 0.0 **** 0.06
5294 H 60.32023299899336 57.39821139858432 66.18480293576808 H 0.0 **** 0.06
5295 H 60.86675414008482 55.83130377528653 65.54081338036923 H 0.0 **** 0.06
5296 C 124.40643601103594 110.30036920009535 17.047195549999344 C 0.0 **** -0.24
5297 H 124.97517529151466 110.58734427218918 16.16273083333573 H 0.0 **** 0.06
5298 H 123.38720215055193 110.67753107962902 16.961060955273922 H 0.0 **** 0.06
5299 H 124.87699317463702 110.72466450066345 17.93403451100903 H 0.0 **** 0.06
5300 H 124.3869898651187 109.21408597209334 17.130912105246125 H 0.0 **** 0.06
5301 C 128.71612830129592 79.75694881006382 13.671801316225952 C 0.0 **** -0.24
5302 H 127.90668422683487 79.16450127711477 14.0993807210601 H 0.0 **** 0.06
5303 H 129.59789233542048 79.679952299881 14.308695863443035 H 0.0 **** 0.06
5304 H 128.40596609829632 80.80052861209072 13.604976381276515 H 0.0 **** 0.06
5305 H 128.95218821338554 79.38412970733276 12.675196317307297 H 0.0 **** 0.06
5306 C 142.1317878401149 124.75623844196032 86.19432986368193 C 0.0 **** -0.24
5307 H 142.88500618625284 124.1086514642949 86.64235452436509 H 0.0 **** 0.06
5308 H 141.85317790105037 125.5345629596423 86.90447303697326 H 0.0 **** 0.06
5309 H 141.250995243026 124.16483729422758 85.93956314166203 H 0.0 **** 0.06
5310 H 142.53549370347957 125.21303276408541 85.29187081702727 H 0.0 **** 0.06
5311 C 74.4406524946697 76.46385455430742 111.38963449487484 C 0.0 **** -0.24
5312 H 73.81427752573364 76.27771081582148 112.26242589724977 H 0.0 **** 0.06
5313 H 74.04209516195417 77.31164504652683 110.83167906154411 H 0.0 **** 0.06
5314 H 74.44836154355951 75.57946581829671 110.75235508954437 H 0.0 **** 0.06
5315 H 75.457372665137 76.68667233673561 111.7137336163937 H 0.0 **** 0.06
5316 C 2.058461671002391 14.183785065233195 60.266849014086176 C 0.0 **** -0.24
5317 H 3.026733733018574 13.693428739803466 60.16291723352373 H 0.0 **** 0.06
5318 H 1.5126166471580405 14.111796508631585 59.3254028855427 H 0.0 **** 0.06
5319 H 2.208171813541071 15.23328731365055 60.52100018145205 H 0.0 **** 0.06
5320 H 1.486701220251888 13.696026262230959 61.05620585656135 H 0.0 **** 0.06
5321 C 117.83500639134074 85.73184294697552 28.261735469433575 C 0.0 **** -0.24
5322 H 118.3145238469955 85.3489075603614 29.1634346780949 H 0.0 **** 0.06
5323 H 117.98233734244893 86.8110005659891 28.202360429947475 H 0.0 **** 0.06
5324 H 116.76811319447653 85.51217036807219 28.296271593179313 H 0.0 **** 0.06
5325 H 118.27609791702467 85.2570423672509 27.38623361225008 H 0.0 **** 0.06
5326 C 24.217053387733657 62.154624255232946 108.27538028396712 C 0.0 **** -0.24
5327 H 24.20780521995181 63.229513849028635 108.09247111232428 H 0.0 **** 0.06
5328 H 23.20796275066556 61.75873386196764 108.16360930295072 H 0.0 **** 0.06
5329 H 24.57294300457604 61.96192961897161 109.28752467068104 H 0.0 **** 0.06
5330 H 24.88026218835843 61.67009359549557 107.55904585953981 H 0.0 **** 0.06
5331 C 44.50793630225715 61.5661721831693 99.62788717003407 C 0.0 **** -0.24
5332 H 45.1184118425501 60.66362493693512 99.6607807929647 H 0.0 **** 0.06
5333 H 44.72630566475553 62.183964619396775 100.50019693076878 H 0.0 **** 0.06
5334 H 43.45299849634736 61.2915275512383 99.63155575036443 H 0.0 **** 0.06
5335 H 44.73504072564154 62.12635696604055 98.72084831399488 H 0.0 **** 0.06
5336 C 123.97942876083874 103.88992093504174 57.91864795347661 C 0.0 **** -0.24
5337 H 124.62778535084861 103.15754495553952 58.400921845409414 H 0.0 **** 0.06
5338 H 123.98562623718342 104.81551541733185 58.49514546969576 H 0.0 **** 0.06
5339 H 122.96340063820809 103.49884972409296 57.86945405626102 H 0.0 **** 0.06
5340 H 124.3423985259669 104.0875260505695 56.90990810832312 H 0.0 **** 0.06
5341 C 139.87490913788204 105.26530120468074 41.434522229298295 C 0.0 **** -0.24
5342 H 140.80229858762183 104.98123636991751 40.936271375104354 H 0.0 **** 0.06
5343 H 140.1010474357826 105.92305543675609 42.27433755367264 H 0.0 **** 0.06
5344 H 139.36939132563984 104.37132007962205 41.79832896706057 H 0.0 **** 0.06
5345 H 139.22850480571813 105.78664437605512 40.72800353586058 H 0.0 **** 0.06
5346 C 69.65266205973515 134.56663291248054 126.24156153781647 C 0.0 **** -0.24
5347 H 69.59464035247285 133.81351906445434 127.02757866327093 H 0.0 **** 0.06
5348 H 69.41486875522949 134.10901175925687 125.2813594162495 H 0.0 **** 0.06
5349 H 70.66017066681465 134.97977531000868 126.20799653587946 H 0.0 **** 0.06
5350 H 68.93975030015733 135.36456000534645 126.45115664053586 H 0.0 **** 0.06
5351 C 116.61084909926299 31.396454054487265 113.43973203533021 C 0.0 **** -0.24
5352 H 117.41989876768653 30.749649346799032 113.7769606472831 H 0.0 **** 0.06
5353 H 116.70411684723186 31.564708522253326 112.36557721582544 H 0.0 **** 0.06
5354 H 116.66506822540461 32.35062612143767 113.96354195745788 H 0.0 **** 0.06
5355 H 115.65286430066365 30.919770781516107 113.65118214280109 H 0.0 **** 0.06
5356 C 62.69059060567277 84.50465397266231 102.42008594183882 C 0.0 **** -0.24
5357 H 63.77327098740177 84.3790671956634 102.419878441114 H 0.0 **** 0.06
5358 H 62.220487290763515 83.60501743652509 102.8158293214462 H 0.0 **** 0.06
5359 H 62.34505419414238 84.67775544405977 101.4009640847966 H 0.0 **** 0.06
5360 H 62.424857414628946 85.3587696425944 103.04423356799623 H 0.0 **** 0.06
5361 C 29.114049691585222 6.130399577969385 81.29725150943156 C 0.0 **** -0.24
5362 H 29.620567015774526 6.764836569517836 80.56873117673564 H 0.0 **** 0.06
5363 H 29.31965328350583 5.083720613861658 81.07193345360737 H 0.0 **** 0.06
5364 H 28.040479942984177 6.309481542624656 81.24967537980025 H 0.0 **** 0.06
5365 H 29.478273369694534 6.365892828409791 82.29774038045315 H 0.0 **** 0.06
5366 C 132.7596051947531 113.06254209979961 13.241013005950151 C 0.0 **** -0.24
5367 H 132.95923330763745 112.78085487426297 14.275211173073103 H 0.0 **** 0.06
5368 H 131.6883412151684 112.99988915633661 13.048770950123469 H 0.0 **** 0.06
5369 H 133.28973206889384 112.38528717602362 12.571926964683001 H 0.0 **** 0.06
5370 H 133.10202704570983 114.08353332429378 13.07093621818089 H 0.0 **** 0.06
5371 C 40.909348951947294 87.11989792382445 145.24141209205052 C 0.0 **** -0.24
5372 H 41.166564190182925 86.18438934628011 145.73879921130114 H 0.0 **** 0.06
5373 H 39.82471473751119 87.2062354994614 145.17047285075242 H 0.0 **** 0.06
5374 H 41.341912841569936 87.13099041868719 144.241421944294 H 0.0 **** 0.06
5375 H 41.30437419112701 87.95737150556016 145.81710036555288 H 0.0 **** 0.06
5376 C 46.44142127128862 3.799100852420736 35.73568544378355 C 0.0 **** -0.24
5377 H 46.499725135524244 4.883513863229155 35.83584548454485 H 0.0 **** 0.06
5378 H 47.281432483239 3.4442331424615418 35.13940956414214 H 0.0 **** 0.06
5379 H 45.50586333404854 3.5301264436851625 35.24442884391425 H 0.0 **** 0.06
5380 H 46.477494240298626 3.341495269023085 36.72397373040624 H 0.0 **** 0.06
5381 C 48.680185799778684 108.78975916016384 31.681479975239085 C 0.0 **** -0.24
5382 H 47.80506484882305 108.93426955826652 31.0468635385825 H 0.0 **** 0.06
5383 H 48.62990347095567 107.80774492472727 32.151077243793736 H 0.0 **** 0.06
5384 H 48.70123259132377 109.56136748591797 32.451444614245304 H 0.0 **** 0.06
5385 H 49.58342440954304 108.85781308584365 31.074776098966765 H 0.0 **** 0.06
5386 C 59.47000854869546 38.14516125385421 103.74434277087701 C 0.0 **** -0.24
5387 H 59.65662379297808 39.000648601973396 103.09620853657128 H 0.0 **** 0.06
5388 H 60.21159801072281 38.126050214195985 104.54382059720433 H 0.0 **** 0.06
5389 H 59.53874068781769 37.226355694903255 103.16323514805883 H 0.0 **** 0.06
5390 H 58.472843055635835 38.2281581376684 104.17625755295663 H 0.0 **** 0.06
5391 C 136.5633783828906 124.62053255668906 141.0279764413698 C 0.0 **** -0.24
5392 H 136.41942654822296 124.21587913182482 140.02589740533242 H 0.0 **** 0.06
5393 H 137.6130251023765 124.882184210723 141.16589715197927 H 0.0 **** 0.06
5394 H 136.2748476556653 123.87175967591998 141.7659704171381 H 0.0 **** 0.06
5395 H 135.9466184377677 125.50957524967467 141.15260019009722 H 0.0 **** 0.06
5396 C 115.0796572125812 18.355802739602893 39.91637190707999 C 0.0 **** -0.24
5397 H 114.88226365826335 17.340175793404228 39.57298349823594 H 0.0 **** 0.06
5398 H 115.20243984785498 19.01241322850629 39.05510947223607 H 0.0 **** 0.06
5399 H 115.99209086315983 18.36549765558877 40.51366730686573 H 0.0 **** 0.06
5400 H 114.24401489745304 18.702705154437922 40.523099583590266 H 0.0 **** 0.06
5401 C 31.002035764371442 66.73441343847122 120.09069236809549 C 0.0 **** -0.24
5402 H 30.563834087575543 65.90649803187483 120.64764501160656 H 0.0 **** 0.06
5403 H 32.04113361778133 66.50302924383959 119.85444896739048 H 0.0 **** 0.06
5404 H 30.959067322565147 67.64053765215561 120.69384612762357 H 0.0 **** 0.06
5405 H 30.443980701337182 66.88516954326917 119.16646725996063 H 0.0 **** 0.06
5406 C 128.58944565085832 74.15029846420138 93.07339615692126 C 0.0 **** -0.24
5407 H 127.87837397576541 73.72975796088618 93.78421163112492 H 0.0 **** 0.06
5408 H 129.60371069442579 74.00320459531638 93.44546032089607 H 0.0 **** 0.06
5409 H 128.39589834084683 75.21609589218865 92.95478271172937 H 0.0 **** 0.06
5410 H 128.47984219396997 73.6510860170035 92.11050731422381 H 0.0 **** 0.06
5411 C 40.61258026637114 144.27613130679012 87.00247332382506 C 0.0 **** -0.24
5412 H 39.72206505880962 144.8415469501268 86.7269415927311 H 0.0 **** 0.06
5413 H 40.32007367933983 143.39314937855383 87.57043344037234 H 0.0 **** 0.06
5414 H 41.26490477710405 144.90158370094147 87.61307793833831 H 0.0 **** 0.06
5415 H 41.142492888234244 143.97037325095542 86.10036550292071 H 0.0 **** 0.06
5416 C 93.94156020558849 33.571497840923 82.41477852120363 C 0.0 **** -0.24
5417 H 93.96841292053321 34.46092091832827 81.7855779177399 H 0.0 **** 0.06
5418 H 94.55857191157212 32.791703510542874 81.96772340498742 H 0.0 **** 0.06
5419 H 92.91386915763853 33.21799331929466 82.50031549524212 H 0.0 **** 0.06
5420 H 94.3259464595047 33.815821281999945 83.40479980276083 H 0.0 **** 0.06
5421 C 130.7496850947083 135.318736616402 75.53327575279619 C 0.0 **** -0.24
5422 H 130.49549634143213 134.61435162122828 76.32524844666678 H 0.0 **** 0.06
5423 H 131.73934743918932 135.73457398506926 75.72169181437982 H 0.0 **** 0.06
5424 H 130.01430657001032 136.12305396642765 75.51208791037334 H 0.0 **** 0.06
5425 H 130.74874962318842 134.80092048259095 74.57374904421157 H 0.0 **** 0.06
5426 C 138.89579467159126 65.06424734086748 6.372739183782187 C 0.0 **** -0.24
5427 H 138.8578814900946 65.96872234607201 6.980003096669918 H 0.0 **** 0.06
5428 H 138.66533084895005 65.31420375720697 5.336504090574408 H 0.0 **** 0.06
5429 H 138.16589529990884 64.34608373938698 6.744328714213793 H 0.0 **** 0.06
5430 H 139.89360370071554 64.63035284335318 6.428654792538907 H 0.0 **** 0.06
5431 C 21.445052741544096 131.96414770413 34.46847347887086 C 0.0 **** -0.24
5432 H 21.987685555689914 132.50982939601127 35.2404883893343 H 0.0 **** 0.06
5433 H 20.380920649546383 132.18873891116536 34.54644534352451 H 0.0 **** 0.06
5434 H 21.601023417247774 130.89331018286586 34.602775710770686 H 0.0 **** 0.06
5435 H 21.81051710068921 132.2636717574725 33.486997563057685 H 0.0 **** 0.06
5436 C 134.1919143436799 14.689824179389163 49.154739815526455 C 0.0 **** -0.24
5437 H 135.0036658594836 14.033846906412748 49.470706954865136 H 0.0 **** 0.06
5438 H 133.4253785736365 14.101731777068942 48.649845621929785 H 0.0 **** 0.06
5439 H 134.58134170732401 15.443170846328982 48.47054467554301 H 0.0 **** 0.06
5440 H 133.75912560343713 15.178393008116345 50.0269022086037 H 0.0 **** 0.06
5441 C 22.782351373092737 77.97705705168637 142.97118902767 C 0.0 **** -0.24
5442 H 21.855522772180706 78.17407792431977 142.43231945035484 H 0.0 **** 0.06
5443 H 23.355179073213364 78.90119011781624 143.05641493866668 H 0.0 **** 0.06
5444 H 23.36788399023169 77.23492287276044 142.428608796826 H 0.0 **** 0.06
5445 H 22.550303290884216 77.60041418928509 143.96712311978027 H 0.0 **** 0.06
5446 C 64.87793091893974 136.09729403583313 19.022321888923983 C 0.0 **** -0.24
5447 H 64.93505649412029 136.01877690352086 20.10819694835672 H 0.0 **** 0.06
5448 H 65.2080954917673 137.08951557504056 18.71312177132475 H 0.0 **** 0.06
5449 H 63.84866383551184 135.9395000219963 18.70038212859967 H 0.0 **** 0.06
5450 H 65.5203482607514 135.34230924079947 18.570406229297248 H 0.0 **** 0.06
5451 C 78.7421272044 85.79359215068638 49.888701875559974 C 0.0 **** -0.24
5452 H 78.29038037330311 86.39015560857547 49.09541580574992 H 0.0 **** 0.06
5453 H 78.51977444277914 84.73944840368574 49.72245773286534 H 0.0 **** 0.06
5454 H 78.33636494872448 86.10412680361912 50.85167442461031 H 0.0 **** 0.06
5455 H 79.82225110429856 85.94223396649932 49.883420027753914 H 0.0 **** 0.06
5456 C 117.05377446355969 94.40950881584916 72.491576825403 C 0.0 **** -0.24
5457 H 118.03349848956428 94.31828594980954 72.95878132698945 H 0.0 **** 0.06
5458 H 116.35411801476583 93.72886655483808 72.97841246178365 H 0.0 **** 0.06
5459 H 117.130367636858 94.15579422566992 71.43441871203333 H 0.0 **** 0.06
5460 H 116.69515604957779 95.43411199415897 72.59423204398547 H 0.0 **** 0.06
5461 C 45.996365755729926 45.02510907302673 93.81571099042432 C 0.0 **** -0.24
5462 H 46.79514007460406 44.47342246889892 93.31867031449019 H 0.0 **** 0.06
5463 H 46.07129851665181 44.87841131274756 94.89384169028614 H 0.0 **** 0.06
5464 H 45.03155003087457 44.662325291468534 93.46497558085977 H 0.0 **** 0.06
5465 H 46.09192821118245 46.086641526080925 93.58678179330872 H 0.0 **** 0.06
5466 C 75.96544500281117 76.44031857763235 27.189609342953794 C 0.0 **** -0.24
5467 H 76.35569824566215 77.08355925823584 26.401677444340002 H 0.0 **** 0.06
5468 H 75.23969538008232 75.74539837951632 26.76598292410587 H 0.0 **** 0.06
5469 H 75.48181323781192 77.05203960528299 27.951430590273006 H 0.0 **** 0.06
5470 H 76.78567004865704 75.8797440553908 27.64006250926721 H 0.0 **** 0.06
5471 C 117.98907840086281 25.07991178702227 138.4566833495067 C 0.0 **** -0.24
5472 H 117.70784468008088 24.49548907382097 139.331872196154 H 0.0 **** 0.06
5473 H 118.77473892437342 24.558139523389713 137.9094099415342 H 0.0 **** 0.06
5474 H 118.3554548836803 26.056099585353785 138.77473297077722 H 0.0 **** 0.06
5475 H 117.12031954615708 25.210172436882992 137.8115879292671 H 0.0 **** 0.06
5476 C 24.16761665667307 90.64689562216255 0.3154443895556476 C 0.0 **** -0.24
5477 H 25.04527871730543 90.03449658663433 0.10914699401976335 H 0.0 **** 0.06
5478 H 23.330971962430688 90.00273066437047 0.5872073169061061 H 0.0 **** 0.06
5479 H 23.909432215318077 91.22176793169758 -0.5746525576993093 H 0.0 **** 0.06
5480 H 24.3846675213942 91.32848162422721 1.1376313032787984 H 0.0 **** 0.06
5481 C 60.81116018601105 21.67049044292935 94.84480779147597 C 0.0 **** -0.24
5482 H 60.21029789248544 20.79360854569825 94.60366148891981 H 0.0 **** 0.06
5483 H 60.775550220679804 21.850544444691508 95.91904722693752 H 0.0 **** 0.06
5484 H 60.41643532800609 22.53890125762834 94.31658446987069 H 0.0 **** 0.06
5485 H 61.844208498465576 21.498172174268717 94.53975767260346 H 0.0 **** 0.06
5486 C 91.04599320932553 35.40076713938143 33.748751079100686 C 0.0 **** -0.24
5487 H 91.01313876155554 36.4853858735282 33.85442845095636 H 0.0 **** 0.06
5488 H 91.94243266426574 35.01578308715099 34.234528256612634 H 0.0 **** 0.06
5489 H 91.06367043739358 35.14078723287446 32.69054559683019 H 0.0 **** 0.06
5490 H 90.16298886609842 34.9639296638546 34.21533360289084 H 0.0 **** 0.06
5491 C 3.275328441888462 45.61874703183159 61.15359646635122 C 0.0 **** -0.24
5492 H 3.7800252057306807 46.362135507874456 61.7709891006393 H 0.0 **** 0.06
5493 H 3.0891326063890006 44.722337586493154 61.746280340196634 H 0.0 **** 0.06
5494 H 3.905597214523084 45.36635814457111 60.301905241633904 H 0.0 **** 0.06
5495 H 2.32776477064931 46.02354069897984 60.79869922170124 H 0.0 **** 0.06
5496 C 65.2155566108915 36.53829760945774 70.20523572088284 C 0.0 **** -0.24
5497 H 65.53631310788501 37.050979118339484 69.29762628022495 H 0.0 **** 0.06
5498 H 64.31683935087105 37.01696055342589 70.59427038708354 H 0.0 **** 0.06
5499 H 66.0083735665662 36.591675148445404 70.95172217988052 H 0.0 **** 0.06
5500 H 65.00207038524786 35.49470551222157 69.97596508564132 H 0.0 **** 0.06
5501 C 92.75796082846466 126.94994643146012 91.82797671519039 C 0.0 **** -0.24
5502 H 93.17745444930208 126.82405323341109 92.82637489423703 H 0.0 **** 0.06
5503 H 92.07289926643051 127.7982716142836 91.8265715107257 H 0.0 **** 0.06
5504 H 92.21794575723536 126.04597568923609 91.5452727311055 H 0.0 **** 0.06
5505 H 93.56323544844372 127.13034361412454 91.11644491424896 H 0.0 **** 0.06
5506 C 129.27110407956562 134.4649440717027 12.028290563334018 C 0.0 **** -0.24
5507 H 129.24651895003055 133.40463366923618 11.774547842670849 H 0.0 **** 0.06
5508 H 129.95885610940874 134.62464513621845 12.857643042421401 H 0.0 **** 0.06
5509 H 128.27175023164344 134.7915361929929 12.315571541780308 H 0.0 **** 0.06
5510 H 129.6057662899194 135.0374129625515 11.16235376753145 H 0.0 **** 0.06
5511 C 27.24126864049049 17.688095220071034 16.450084157106602 C 0.0 **** -0.24
5512 H 27.51130478263707 18.551415319985196 17.05939265401289 H 0.0 **** 0.06
5513 H 27.089265924846288 16.82207644261416 17.093666717894287 H 0.0 **** 0.06
5514 H 28.04351833038136 17.479509733074025 15.741835999020445 H 0.0 **** 0.06
5515 H 26.321542639191676 17.90220677099397 15.904607050001793 H 0.0 **** 0.06
5516 C 137.95743286711345 72.09610986680315 56.530800549300835 C 0.0 **** -0.24
5517 H 137.40135280195767 72.52648527691228 57.36378006447114 H 0.0 **** 0.06
5518 H 137.40570241544214 72.25830052906402 55.60429224438266 H 0.0 **** 0.06
5519 H 138.08647344864858 71.02651874696909 56.694447220265374 H 0.0 **** 0.06
5520 H 138.93351392915628 72.57445836811362 56.46081986759242 H 0.0 **** 0.06
5521 C 17.164098377368873 50.03645937221435 91.147320409623 C 0.0 **** -0.24
5522 H 17.38807735356349 49.11014470410143 91.67771980015249 H 0.0 **** 0.06
5523 H 16.778417023032688 50.77292039495342 91.85255864460589 H 0.0 **** 0.06
5524 H 16.416527239065033 49.84194089723988 90.37822948080014 H 0.0 **** 0.06
5525 H 18.07345866903509 50.41798143358491 90.68375203065983 H 0.0 **** 0.06
5526 C 140.79988004767074 41.03734922861935 145.18978743668814 C 0.0 **** -0.24
5527 H 141.48192952764924 41.193362986102045 146.02511316701836 H 0.0 **** 0.06
5528 H 139.8296443759076 40.715548188524394 145.56811629600216 H 0.0 **** 0.06
5529 H 141.20505195411505 40.27084556511977 144.528757346191 H 0.0 **** 0.06
5530 H 140.68350619822195 41.96902655532227 144.63604527052948 H 0.0 **** 0.06
5531 C 97.64681692326693 19.552311558495177 141.76996248473972 C 0.0 **** -0.24
5532 H 98.28487145904808 20.371359280276153 141.44002752329993 H 0.0 **** 0.06
5533 H 97.79095296736948 18.692537053149344 141.11619917418767 H 0.0 **** 0.06
5534 H 96.60375574919094 19.866354845184347 141.7322120640775 H 0.0 **** 0.06
5535 H 97.9065754854852 19.27900308764577 142.79359374067218 H 0.0 **** 0.06
5536 C 111.93554881088815 79.65079210902641 136.7970857226285 C 0.0 **** -0.24
5537 H 112.69903755538829 79.93117349271955 137.52308306070955 H 0.0 **** 0.06
5538 H 111.46300843884407 78.71906544794533 137.11008249237767 H 0.0 **** 0.06
5539 H 112.39592708509971 79.51504041339103 135.81918585280613 H 0.0 **** 0.06
5540 H 111.18352126818914 80.4383131469533 136.73920542211428 H 0.0 **** 0.06
5541 C 35.16499722796814 133.90206176161848 61.13411511958779 C 0.0 **** -0.24
5542 H 34.87543660233638 134.95087195231562 61.207659492790796 H 0.0 **** 0.06
5543 H 35.2403991802056 133.47554937969446 62.13459532930226 H 0.0 **** 0.06
5544 H 36.130053896412846 133.82710508580158 60.63300932436137 H 0.0 **** 0.06
5545 H 34.41514627428381 133.35784006531168 60.561612624906886 H 0.0 **** 0.06
5546 C 103.91981887566043 34.59420341460381 127.27241972601249 C 0.0 **** -0.24
5547 H 104.76391701367685 35.24996581531852 127.4880651389086 H 0.0 **** 0.06
5548 H 104.2902343152681 33.618434956147524 126.9577226883425 H 0.0 **** 0.06
5549 H 103.3169487830666 35.02912383687615 126.47546693040596 H 0.0 **** 0.06
5550 H 103.31027509729145 34.480511917240165 128.16873413013167 H 0.0 **** 0.06
5551 C 57.371310247167074 44.89400044293558 91.50824014666095 C 0.0 **** -0.24
5552 H 57.41087543947465 44.944890736349265 90.42032302975021 H 0.0 **** 0.06
5553 H 58.32132704536008 44.51828917529377 91.88888570868569 H 0.0 **** 0.06
5554 H 56.56644262279552 44.22331895368551 91.81048405783405 H 0.0 **** 0.06
5555 H 57.186602179253185 45.88904839697361 91.91192858580936 H 0.0 **** 0.06
5556 C 62.96636929354955 92.52969581001183 144.15034796241278 C 0.0 **** -0.24
5557 H 62.69649017312199 92.95373778252704 143.18292117843592 H 0.0 **** 0.06
5558 H 62.15267230798767 91.89747648422723 144.5087456886263 H 0.0 **** 0.06
5559 H 63.14205836262451 93.33498530390465 144.86381491409864 H 0.0 **** 0.06
5560 H 63.871825853233275 91.93281840089631 144.0461048597697 H 0.0 **** 0.06
5561 C 18.058765173174194 8.056252015882137 55.337073938495294 C 0.0 **** -0.24
5562 H 17.769745879818885 7.6268879564360645 56.29643375404862 H 0.0 **** 0.06
5563 H 18.376482937954805 7.25987596706014 54.66309948500928 H 0.0 **** 0.06
5564 H 18.880810699010766 8.756576873389037 55.48625892396066 H 0.0 **** 0.06
5565 H 17.207403469012377 8.582404177395233 54.903540648383085 H 0.0 **** 0.06
5566 C 131.92227135578645 67.03517504271598 115.25084774422021 C 0.0 **** -0.24
5567 H 130.8928375093801 67.18104691039878 115.57911787665614 H 0.0 **** 0.06
5568 H 131.93492241822574 66.38765626685213 114.37443217065066 H 0.0 **** 0.06
5569 H 132.49571681824233 66.57180279824428 116.05403662965256 H 0.0 **** 0.06
5570 H 132.3633127699161 67.99921525197645 114.99746889364621 H 0.0 **** 0.06
5571 C 19.3634199092229 113.73043316459876 95.23557902760436 C 0.0 **** -0.24
5572 H 19.23287347740623 114.66935964974942 95.77229824607745 H 0.0 **** 0.06
5573 H 19.550361203073493 113.93707431921564 94.18198600134721 H 0.0 **** 0.06
5574 H 18.460397424679783 113.12717023531957 95.33326302125393 H 0.0 **** 0.06
5575 H 20.209769476334856 113.18702867783321 95.65561339173739 H 0.0 **** 0.06
5576 C 64.07082171366389 121.42150185282706 109.9400749577724 C 0.0 **** -0.24
5577 H 65.14096180960752 121.6039302781689 109.85044309002106 H 0.0 **** 0.06
5578 H 63.588714063583154 121.60621060827627 108.98050226544754 H 0.0 **** 0.06
5579 H 63.650950658796546 122.08845116576806 110.69265238285672 H 0.0 **** 0.06
5580 H 63.90302791372069 120.38616990777386 110.23852251750449 H 0.0 **** 0.06
5581 C 40.19811508820749 58.868844240053605 82.73199048924243 C 0.0 **** -0.24
5582 H 39.60141706494363 59.720633088777845 82.40664591222415 H 0.0 **** 0.06
5583 H 39.908169887758675 58.58854593323093 83.74498731388452 H 0.0 **** 0.06
5584 H 41.25455409982885 59.13817197429479 82.71698667899545 H 0.0 **** 0.06
5585 H 40.02831930029873 58.02802596391096 82.05934205186581 H 0.0 **** 0.06
5586 C 12.97948910499371 85.59340241106213 63.090539098178795 C 0.0 **** -0.24
5587 H 12.691844057347218 86.61484430271662 62.83859714347102 H 0.0 **** 0.06
5588 H 14.00862746253727 85.41853153167881 62.777567384535246 H 0.0 **** 0.06
5589 H 12.318852099227193 84.89440217486475 62.57825081436931 H 0.0 **** 0.06
5590 H 12.897570826585692 85.44862903345216 64.16795822677923 H 0.0 **** 0.06
5591 C 121.80578297926729 71.87713249375335 137.9289590795816 C 0.0 **** -0.24
5592 H 122.5211699574466 72.26863784744889 137.20565697735827 H 0.0 **** 0.06
5593 H 122.32015905050395 71.21648501912088 138.62650050929284 H 0.0 **** 0.06
5594 H 121.0286339009673 71.32108246642609 137.40563745165176 H 0.0 **** 0.06
5595 H 121.35488666196778 72.70456868085266 138.47630516702606 H 0.0 **** 0.06
5596 C 135.74863453830278 78.48615387383762 113.76550451079582 C 0.0 **** -0.24
5597 H 135.04776868464032 78.78042453844415 112.98435297406805 H 0.0 **** 0.06
5598 H 136.64022723166198 78.05534060053833 113.30977180987078 H 0.0 **** 0.06
5599 H 135.27865012953808 77.74869986730141 114.41555151254038 H 0.0 **** 0.06
5600 H 136.02666090865358 79.3626423013825 114.3518169890856 H 0.0 **** 0.06
5601 C 25.137632293573994 89.40227181232937 67.34824990187283 C 0.0 **** -0.24
5602 H 25.74291689039635 89.33566148651347 66.44475531175536 H 0.0 **** 0.06
5603 H 24.080830393660186 89.3809419116692 67.08030826883768 H 0.0 **** 0.06
5604 H 25.36162172311841 90.33406019735108 67.86753791021064 H 0.0 **** 0.06
5605 H 25.364553559768062 88.55942464274422 68.00119192773855 H 0.0 **** 0.06
5606 C 91.97166438857012 86.1186724839074 106.20125403315735 C 0.0 **** -0.24
5607 H 91.56930006006682 85.5648039182153 107.04926490682665 H 0.0 **** 0.06
5608 H 91.6164429520191 85.66910165636287 105.272921772819 H 0.0 **** 0.06
5609 H 93.06109108822864 86.08423645805397 106.22772194460943 H 0.0 **** 0.06
5610 H 91.64015915476129 87.15541839111184 106.25383800495878 H 0.0 **** 0.06
5611 C 97.65375264152209 87.01607181630663 48.050527888172795 C 0.0 **** -0.24
5612 H 98.67936310827707 87.34798520158591 47.88882576868673 H 0.0 **** 0.06
5613 H 97.09808895510486 87.79676877057358 48.57092011655354 H 0.0 **** 0.06
5614 H 97.65631407943715 86.10829669261165 48.65276256098606 H 0.0 **** 0.06
5615 H 97.18255862117911 86.81352270020955 47.08857988546151 H 0.0 **** 0.06
5616 C 134.44733116674067 119.97303932930575 99.32488878494885 C 0.0 **** -0.24
5617 H 134.00981827959748 120.06430587403818 100.31988770990372 H 0.0 **** 0.06
5618 H 134.68070647397482 118.92708924529896 99.12614956257931 H 0.0 **** 0.06
5619 H 135.36033813562707 120.5660758941012 99.27323806380515 H 0.0 **** 0.06
5620 H 133.73647394535502 120.33501951108119 98.58250193949623 H 0.0 **** 0.06
5621 C 29.623950807825793 144.93701725438805 121.53619371019688 C 0.0 **** -0.24
5622 H 30.0608793583597 144.4265504958074 122.39352617582826 H 0.0 **** 0.06
5623 H 29.203106673877528 145.88986828633887 121.85745221724555 H 0.0 **** 0.06
5624 H 28.83622640038172 144.31787316849181 121.10751581957972 H 0.0 **** 0.06
5625 H 30.39515935727721 145.114161451055 120.78709680876757 H 0.0 **** 0.06
5626 C 125.40615674460562 16.116784347194155 26.72786218437892 C 0.0 **** -0.24
5627 H 125.88364112589727 15.174217136004046 26.993402319729995 H 0.0 **** 0.06
5628 H 124.41384977365152 16.161583957702625 27.177588549007027 H 0.0 **** 0.06
5629 H 125.31654632964106 16.18614609624759 25.64370360567662 H 0.0 **** 0.06
5630 H 126.00955820893546 16.94599199696792 27.096212846705896 H 0.0 **** 0.06
5631 C 117.62393752662048 66.49007639937281 142.12525343801823 C 0.0 **** -0.24
5632 H 116.74084479733908 67.12507234778568 142.05508030350833 H 0.0 **** 0.06
5633 H 118.5205189389131 67.10386045691658 142.03388147974366 H 0.0 **** 0.06
5634 H 117.60441908335018 65.75286178422951 141.32310226552622 H 0.0 **** 0.06
5635 H 117.62828644929253 65.97952452861531 143.08787835810688 H 0.0 **** 0.06
5636 C 136.84826057074721 22.72725950921474 124.73072515022909 C 0.0 **** -0.24
5637 H 136.92491412754137 22.373926255076682 125.75883493225916 H 0.0 **** 0.06
5638 H 136.90707775460604 21.8775084814924 124.04909936166706 H 0.0 **** 0.06
5639 H 137.66451237002443 23.41835729700145 124.52186702082184 H 0.0 **** 0.06
5640 H 135.89510229369105 23.2383194534766 124.59281592174517 H 0.0 **** 0.06
5641 C 56.90606800113136 37.041820998851534 95.99647353390539 C 0.0 **** -0.24
5642 H 57.09146679154517 38.11513644711823 96.03646263257136 H 0.0 **** 0.06
5643 H 57.06909894052208 36.60869409813452 96.98346234175538 H 0.0 **** 0.06
5644 H 57.587445881254865 36.5825201150474 95.280574264857 H 0.0 **** 0.06
5645 H 55.87734979431437 36.862766132071926 95.68606889536468 H 0.0 **** 0.06
5646 C 58.71737402671616 80.02634593519679 72.67514102896118 C 0.0 **** -0.24
5647 H 57.73569553862005 79.70636079718271 73.02613220439679 H 0.0 **** 0.06
5648 H 58.72594468625701 80.04172147097434 71.58556174937844 H 0.0 **** 0.06
5649 H 59.47582504184285 79.33150047338265 73.0355903777073 H 0.0 **** 0.06
5650 H 58.93002234922605 81.02560655808531 73.05549981814659 H 0.0 **** 0.06
5651 C 19.10927878994889 118.7272704856766 72.75084386504635 C 0.0 **** -0.24
5652 H 19.864903424744398 118.839976367189 73.52853127525532 H 0.0 **** 0.06
5653 H 18.569328599801935 117.79275769605741 72.90177270397656 H 0.0 **** 0.06
5654 H 19.591977866418546 118.7146791004208 71.77436606587797 H 0.0 **** 0.06
5655 H 18.410757826655498 119.56313911031882 72.79960902880883 H 0.0 **** 0.06
5656 C 28.448933121514493 39.21390744508979 7.6955626546238705 C 0.0 **** -0.24
5657 H 27.689977355146297 38.903105109745695 6.978870343389559 H 0.0 **** 0.06
5658 H 28.2423260091485 40.23146560226505 8.025851550858022 H 0.0 **** 0.06
5659 H 29.430879729721433 39.17794663848805 7.222846446450404 H 0.0 **** 0.06
5660 H 28.434519376560118 38.54197905159724 8.553768561866917 H 0.0 **** 0.06
5661 C 54.785980502992544 29.437604016210052 123.57040616858953 C 0.0 **** -0.24
5662 H 54.535214001736136 29.276853639218707 124.619821461658 H 0.0 **** 0.06
5663 H 55.20340684588638 28.52066305999073 123.1533984189667 H 0.0 **** 0.06
5664 H 55.519675581118804 30.239644140670137 123.49141847967338 H 0.0 **** 0.06
5665 H 53.8868264587542 29.71187202238268 123.02024902154768 H 0.0 **** 0.06
5666 C 105.3117238687791 86.58408906771405 142.93780498418423 C 0.0 **** -0.24
5667 H 104.4534367642841 85.94846652678802 142.71913595337932 H 0.0 **** 0.06
5668 H 105.14996239863848 87.57265058496375 142.50859963761192 H 0.0 **** 0.06
5669 H 106.20975298750432 86.14232320294744 142.50529655170052 H 0.0 **** 0.06
5670 H 105.43353912190867 86.67154139420404 144.01715386382133 H 0.0 **** 0.06
5671 C 79.68604237991727 8.702128916247176 50.43152622504208 C 0.0 **** -0.24
5672 H 79.8310331900538 7.742465870814613 49.934311534505014 H 0.0 **** 0.06
5673 H 80.10366050101393 9.497297968906196 49.812463014029646 H 0.0 **** 0.06
5674 H 80.19009599181615 8.69091434952108 51.39768566681188 H 0.0 **** 0.06
5675 H 78.62081245742331 8.877089933990192 50.578269867645034 H 0.0 **** 0.06
5676 C 14.486242995412198 59.35710719600905 9.654822016606978 C 0.0 **** -0.24
5677 H 13.664416713233464 59.18223430329917 10.34939738569809 H 0.0 **** 0.06
5678 H 14.58686559231009 58.50012919684741 8.988375676753648 H 0.0 **** 0.06
5679 H 15.411400098819712 59.4923461216074 10.215188564860135 H 0.0 **** 0.06
5680 H 14.281483188149224 60.25251554694441 9.068301612215269 H 0.0 **** 0.06
5681 C 45.47311242832214 57.17762307261758 116.68241153820348 C 0.0 **** -0.24
5682 H 45.595751879408 58.126830692514815 116.15928112844149 H 0.0 **** 0.06
5683 H 45.41242390736599 57.360902615745076 117.7553749240543 H 0.0 **** 0.06
5684 H 46.32697541171237 56.53346744263297 116.47039393451256 H 0.0 **** 0.06
5685 H 44.558584547208795 56.691790258261875 116.34314600636422 H 0.0 **** 0.06
5686 C 50.500775634245315 94.76047472901544 8.301154689450929 C 0.0 **** -0.24
5687 H 51.09894783022685 95.43091690860663 7.684269616544196 H 0.0 **** 0.06
5688 H 50.897791580685976 93.7479682991166 8.228113843775496 H 0.0 **** 0.06
5689 H 49.467084481268216 94.7722886792437 7.954865868068595 H 0.0 **** 0.06
5690 H 50.53992237353174 95.09198808240345 9.339817011715418 H 0.0 **** 0.06
5691 C 124.09361479750882 58.21970040199756 64.18603276792196 C 0.0 **** -0.24
5692 H 123.38931319575144 58.72603552401179 63.52543763854412 H 0.0 **** 0.06
5693 H 124.43287353285345 58.91422990845379 64.954531414398 H 0.0 **** 0.06
5694 H 124.94855172191737 57.87192073826154 63.60639749816022 H 0.0 **** 0.06
5695 H 123.60270625869774 57.3683266949036 64.65633529420187 H 0.0 **** 0.06
5696 C 2.2687447269493077 136.07705121757976 25.030284333939022 C 0.0 **** -0.24
5697 H 1.4556473467341107 136.8029440710384 25.034539967376986 H 0.0 **** 0.06
5698 H 3.1196405908484337 136.48228071071745 25.576791544144953 H 0.0 **** 0.06
5699 H 2.562699982942206 135.86718764918933 24.00210075829537 H 0.0 **** 0.06
5700 H 1.9348321361811998 135.15616415056502 25.508153854493344 H 0.0 **** 0.06
5701 C 21.900150715450692 1.5402548006916845 7.184950815391346 C 0.0 **** -0.24
5702 H 21.393326522022846 0.8049124432452572 6.559903010295358 H 0.0 **** 0.06
5703 H 22.703317726538017 2.0095543532866884 6.614851985319092 H 0.0 **** 0.06
5704 H 22.31735375452803 1.0456031639942864 8.061358952812242 H 0.0 **** 0.06
5705 H 21.186209683671777 2.3010889265943604 7.501275895010934 H 0.0 **** 0.06
5706 C 84.33966944103017 59.59368860500615 132.4460291189161 C 0.0 **** -0.24
5707 H 83.2683610487882 59.79067251622973 132.41941098598312 H 0.0 **** 0.06
5708 H 84.52844003999911 58.69103656896314 133.02900849619718 H 0.0 **** 0.06
5709 H 84.85356429191137 60.4373841132182 132.9063505882548 H 0.0 **** 0.06
5710 H 84.70925443023751 59.45348675091492 131.42996647544345 H 0.0 **** 0.06
5711 C 144.88574677421366 4.232517405842884 59.61802049592559 C 0.0 **** -0.24
5712 H 144.6321844735739 3.2221965043789567 59.296740650315016 H 0.0 **** 0.06
5713 H 145.47872132832507 4.720707816264763 58.84421934277569 H 0.0 **** 0.06
5714 H 145.4628189115253 4.18517946636382 60.542563544451525 H 0.0 **** 0.06
5715 H 143.97181740506556 4.800452300811429 59.788211277193454 H 0.0 **** 0.06
5716 C 104.8975441440865 130.44958398242824 18.250428697964935 C 0.0 **** -0.24
5717 H 104.85309589225994 129.88653110490304 19.18221390295919 H 0.0 **** 0.06
5718 H 105.04491035073974 129.7612417600694 17.41762072123973 H 0.0 **** 0.06
5719 H 105.72877733079311 131.15374168319985 18.29135831915923 H 0.0 **** 0.06
5720 H 103.96432600720236 130.99491011906343 18.111212353011894 H 0.0 **** 0.06
5721 C 85.15145048972141 37.704909662913174 112.99533507009751 C 0.0 **** -0.24
5722 H 85.19344033480868 36.63509371492256 112.79002164930178 H 0.0 **** 0.06
5723 H 86.04893773210486 38.18541751236888 112.60488176385589 H 0.0 **** 0.06
5724 H 85.09229984637929 37.865746887996195 114.07158386398531 H 0.0 **** 0.06
5725 H 84.2715941061104 38.132510914948185 112.51500415013821 H 0.0 **** 0.06
5726 C 22.15151519978771 57.96851867657429 106.88565441793519 C 0.0 **** -0.24
5727 H 21.929609628573075 57.1132367898382 106.2466483532361 H 0.0 **** 0.06
5728 H 23.231773300200828 58.09971039394895 106.95395594180461 H 0.0 **** 0.06
5729 H 21.74291661312966 57.792266193085325 107.88114434428367 H 0.0 **** 0.06
5730 H 21.70140340941436 58.86475453826421 106.46078564243926 H 0.0 **** 0.06
5731 C 87.76006894114934 20.358701799069664 32.302356736018595 C 0.0 **** -0.24
5732 H 86.81206564639362 20.877818045906466 32.163536910731196 H 0.0 **** 0.06
5733 H 87.71670738008058 19.761854999635965 33.21341028572661 H 0.0 **** 0.06
5734 H 88.56569708011651 21.088686847666587 32.383787972822816 H 0.0 **** 0.06
5735 H 87.94576701939874 19.707341648442764 31.449137529315436 H 0.0 **** 0.06
5736 C 3.4952601219089274 42.21078986685063 59.1089655499418 C 0.0 **** -0.24
5737 H 3.1426805121718644 42.0227719430124 60.12257184927296 H 0.0 **** 0.06
5738 H 4.017885882365988 41.32914752012783 58.73628467215596 H 0.0 **** 0.06
5739 H 4.175944695417286 43.06202331280616 59.11376365057268 H 0.0 **** 0.06
5740 H 2.6445293976806283 42.429216691456475 58.46324202776576 H 0.0 **** 0.06
5741 C 84.58899729342944 82.00477426145042 24.040030701275924 C 0.0 **** -0.24
5742 H 84.28776704829812 82.73586135911158 23.28931243041319 H 0.0 **** 0.06
5743 H 85.383038990106 81.37606250341369 23.636643513673597 H 0.0 **** 0.06
5744 H 83.73336374624704 81.38488403672656 24.30614946964952 H 0.0 **** 0.06
5745 H 84.95125308442735 82.52516511559377 24.926830572959062 H 0.0 **** 0.06
5746 C 95.55150868835052 12.948599178654149 108.68530202720048 C 0.0 **** -0.24
5747 H 94.85662906586045 12.16070170189181 108.97751567037336 H 0.0 **** 0.06
5748 H 95.44751123141754 13.794741739127574 109.36592253553236 H 0.0 **** 0.06
5749 H 95.3272102839957 13.271094521851694 107.668130501395 H 0.0 **** 0.06
5750 H 96.57138171944048 12.568149191449095 108.72973905853918 H 0.0 **** 0.06
5751 C 30.18384934187449 142.50939480799488 75.68778277111306 C 0.0 **** -0.24
5752 H 29.330901304868163 143.18647348023038 75.63373605032683 H 0.0 **** 0.06
5753 H 29.82834508903514 141.47835218690918 75.69409117547525 H 0.0 **** 0.06
5754 H 30.746862514658147 142.705473892536 76.60023992200757 H 0.0 **** 0.06
5755 H 30.827248542127265 142.666827820144 74.8222672011488 H 0.0 **** 0.06
5756 C 73.88268112726644 83.73233619686027 64.08526628740678 C 0.0 **** -0.24
5757 H 74.06318907541592 83.7852144578776 63.01168226160625 H 0.0 **** 0.06
5758 H 74.19752369554996 82.75741913333297 64.45862778990158 H 0.0 **** 0.06
5759 H 72.82022297104871 83.87087528761734 64.28239931176498 H 0.0 **** 0.06
5760 H 74.45120464999033 84.51446301116883 64.58802321630388 H 0.0 **** 0.06
5761 C 1.4661218348942384 29.209751718748123 26.68183622471446 C 0.0 **** -0.24
5762 H 2.2098144640766577 28.41685630669707 26.764474331009865 H 0.0 **** 0.06
5763 H 1.1702363732424033 29.32239863705223 25.638513460405136 H 0.0 **** 0.06
5764 H 1.8926959296772452 30.14538340384013 27.04235772889882 H 0.0 **** 0.06
5765 H 0.5932574704922331 28.952802029964914 27.28249468139245 H 0.0 **** 0.06
5766 C 111.5837250399374 103.34101690879064 68.00596870181991 C 0.0 **** -0.24
5767 H 111.38532800292705 102.39381916639903 67.5048989185691 H 0.0 **** 0.06
5768 H 111.25098352417979 103.2801015755941 69.04230953214724 H 0.0 **** 0.06
5769 H 111.04447166992793 104.14100213628129 67.4975472370412 H 0.0 **** 0.06
5770 H 112.65273459484627 103.54942158830005 67.9792309712536 H 0.0 **** 0.06
5771 C 47.31449257765375 113.43611871143555 126.29647478122999 C 0.0 **** -0.24
5772 H 46.80673946906823 112.78473170170754 127.00827367847836 H 0.0 **** 0.06
5773 H 47.947212299077904 112.83601277888805 125.64225193213596 H 0.0 **** 0.06
5774 H 47.929346572650445 114.1548997719362 126.83710977751397 H 0.0 **** 0.06
5775 H 46.57414602177539 113.96800478602337 125.69806010765035 H 0.0 **** 0.06
5776 C 13.396467930512301 30.832741354175653 63.815085411256334 C 0.0 **** -0.24
5777 H 12.767334519919984 29.977509133672072 64.06287346616725 H 0.0 **** 0.06
5778 H 14.421193789150777 30.495999436173975 63.65706102696922 H 0.0 **** 0.06
5779 H 13.371529734135265 31.551311434498416 64.63485675816915 H 0.0 **** 0.06
5780 H 13.025058454703128 31.305609404940242 62.90592772146661 H 0.0 **** 0.06
5781 C 141.35797342919992 38.54445596386941 29.55233700967605 C 0.0 **** -0.24
5782 H 141.05634011545547 37.49806235239748 29.593889753584513 H 0.0 **** 0.06
5783 H 141.5864189416276 38.815395939234406 28.521439301528694 H 0.0 **** 0.06
5784 H 142.24301938781218 38.691059981879164 30.171131638089612 H 0.0 **** 0.06
5785 H 140.54706403213783 39.17112756012531 29.92229040583166 H 0.0 **** 0.06
5786 C 8.187320725371762 138.51235232113305 87.3944667573735 C 0.0 **** -0.24
5787 H 7.6181971550388425 139.43872447391954 87.32301151224489 H 0.0 **** 0.06
5788 H 8.229017143772978 138.1904850153306 88.4351039417873 H 0.0 **** 0.06
5789 H 9.19910347844666 138.67855439107376 87.02454050521906 H 0.0 **** 0.06
5790 H 7.703393434734153 137.74120223742003 86.79442354437613 H 0.0 **** 0.06
5791 C 5.500792199462353 110.95327535199652 28.19072257554032 C 0.0 **** -0.24
5792 H 4.449047196396123 111.19255744750569 28.034615528294893 H 0.0 **** 0.06
5793 H 5.911283375239634 110.51265832912128 27.282765261858145 H 0.0 **** 0.06
5794 H 5.593057790974001 110.24328261551705 29.0136504860603 H 0.0 **** 0.06
5795 H 6.047679507723501 111.8640688869487 28.433932960140538 H 0.0 **** 0.06
5796 C 10.77345212893249 80.42544612888835 101.38034985836967 C 0.0 **** -0.24
5797 H 11.381289702459867 79.5210670750399 101.4133032033877 H 0.0 **** 0.06
5798 H 9.906753549448013 80.30531082374601 102.03092960750615 H 0.0 **** 0.06
5799 H 10.440237888702882 80.60040446445316 100.3576481796305 H 0.0 **** 0.06
5800 H 11.367853689318338 81.27423518563859 101.71950151791398 H 0.0 **** 0.06
5801 C 86.0979138432291 38.70417442249475 102.55322588718842 C 0.0 **** -0.24
5802 H 86.15154055533128 37.64920739085213 102.28565981191026 H 0.0 **** 0.06
5803 H 85.5643532814457 38.81204739730199 103.49828117849862 H 0.0 **** 0.06
5804 H 85.56999159384077 39.251095866026624 101.77260184825279 H 0.0 **** 0.06
5805 H 87.10750008559398 39.10297483293748 102.6583914874372 H 0.0 **** 0.06
5806 C 40.51003884084284 27.646376150761967 119.27987740361965 C 0.0 **** -0.24
5807 H 40.148812643506915 26.846993621313743 119.92810203430707 H 0.0 **** 0.06
5808 H 41.10271152926762 28.348422734665746 119.86649105937516 H 0.0 **** 0.06
5809 H 39.65938719230732 28.167228419631726 118.83937471375333 H 0.0 **** 0.06
5810 H 41.12582121397733 27.22112760012726 118.48804876803672 H 0.0 **** 0.06
5811 C 100.30335484954122 68.3912327742005 111.03095944101837 C 0.0 **** -0.24
5812 H 100.16757647408744 69.40504096135956 110.65363847529126 H 0.0 **** 0.06
5813 H 100.01278262899707 68.35193053512359 112.08078133786519 H 0.0 **** 0.06
5814 H 101.35070793052265 68.10533621776679 110.9322903317884 H 0.0 **** 0.06
5815 H 99.68297232433093 67.70450644882128 110.45511017996937 H 0.0 **** 0.06
5816 C 79.35804942607056 88.61490645967535 110.03372081452108 C 0.0 **** -0.24
5817 H 79.91452004208905 87.86848838744164 110.60133287379955 H 0.0 **** 0.06
5818 H 79.69412839902553 88.6055352362489 108.99617560432705 H 0.0 **** 0.06
5819 H 79.53205441395195 89.60138155024882 110.46322523451585 H 0.0 **** 0.06
5820 H 78.29363249402476 88.38309938234985 110.07373305712787 H 0.0 **** 0.06
5821 C 130.42805238051295 121.83074144006423 125.75906043143704 C 0.0 **** -0.24
5822 H 130.60717407562083 121.76969817405808 124.685643908623 H 0.0 **** 0.06
5823 H 129.35517734863456 121.88055349626927 125.94618296163398 H 0.0 **** 0.06
5824 H 130.9082262872394 122.72488602601572 126.15613770219645 H 0.0 **** 0.06
5825 H 130.8426967274567 120.94825242615076 126.24663823797744 H 0.0 **** 0.06
5826 C 22.217699404124886 65.9117530089249 83.33576556566204 C 0.0 **** -0.24
5827 H 21.24194322380916 65.50161772655304 83.07690114349995 H 0.0 **** 0.06
5828 H 22.70099667488094 65.2641298005006 84.06921559695735 H 0.0 **** 0.06
5829 H 22.092057050205597 66.90886218953113 83.75816015793801 H 0.0 **** 0.06
5830 H 22.835839151165914 65.97175146094827 82.4403900554096 H 0.0 **** 0.06
5831 C 93.33621972885564 78.81927253363801 51.788322310574785 C 0.0 **** -0.24
5832 H 92.3987838709154 79.34865160221337 51.959966498806835 H 0.0 **** 0.06
5833 H 93.2814516167296 78.28303510971838 50.83978455678596 H 0.0 **** 0.06
5834 H 93.50607760704042 78.10913154771714 52.59746319275163 H 0.0 **** 0.06
5835 H 94.15653146163491 79.53473203517481 51.754496808353196 H 0.0 **** 0.06
5836 C 142.09891602081748 58.006494437586014 5.752901707062019 C 0.0 **** -0.24
5837 H 142.8611312004363 57.2338364574471 5.85294947989188 H 0.0 **** 0.06
5838 H 142.28293729462345 58.58333451172348 4.8451050835406875 H 0.0 **** 0.06
5839 H 142.1368388567814 58.6689116783773 6.617891399989428 H 0.0 **** 0.06
5840 H 141.11524257035697 57.54091924087032 5.694351195865146 H 0.0 **** 0.06
5841 C 2.313828130672949 54.568494451018694 102.97912012664895 C 0.0 **** -0.24
5842 H 2.2025382430473073 54.73449111010501 104.05026555615399 H 0.0 **** 0.06
5843 H 2.8193987911859892 53.61740508563736 102.80895765279428 H 0.0 **** 0.06
5844 H 2.904857399304042 55.37565822903838 102.54574274007064 H 0.0 **** 0.06
5845 H 1.3303551679220256 54.546677815480734 102.50915642336398 H 0.0 **** 0.06
5846 C 87.26516647182055 28.12095572382438 88.29598053114432 C 0.0 **** -0.24
5847 H 87.37888371639532 27.290129787728375 88.99386135337409 H 0.0 **** 0.06
5848 H 86.61506346811854 27.818703069679913 87.47520328060773 H 0.0 **** 0.06
5849 H 88.24246928259753 28.400240899298836 87.9025292692584 H 0.0 **** 0.06
5850 H 86.82580669217374 28.972702555729228 88.81485546694611 H 0.0 **** 0.06
5851 C 70.61744451982406 29.494795209335905 141.9788251415274 C 0.0 **** -0.24
5852 H 69.7195685773537 29.677875877810493 142.56897440371756 H 0.0 **** 0.06
5853 H 70.34027501431001 29.330720224206914 140.9365495314501 H 0.0 **** 0.06
5854 H 71.12981055701766 28.6123103668196 142.36141947564448 H 0.0 **** 0.06
5855 H 71.27911346206008 30.358327971342476 142.0473691434557 H 0.0 **** 0.06
5856 C 138.9592635730553 3.7399360354152407 59.84596366459246 C 0.0 **** -0.24
5857 H 138.87838234527726 2.6646410190508902 60.009150089371104 H 0.0 **** 0.06
5858 H 138.1932917034317 4.058322201736161 59.139121940276794 H 0.0 **** 0.06
5859 H 139.9451263555105 3.973538208593453 59.445027936795384 H 0.0 **** 0.06
5860 H 138.8189922223561 4.261649642310886 60.793533096824575 H 0.0 **** 0.06
5861 C 102.34351099770385 114.38481064660103 77.03923425694902 C 0.0 **** -0.24
5862 H 103.07765744985375 114.86211527383115 76.3904706961593 H 0.0 **** 0.06
5863 H 101.504383191795 115.06204630169434 77.19795818004926 H 0.0 **** 0.06
5864 H 102.8055175608311 114.14778450100344 77.99813074903787 H 0.0 **** 0.06
5865 H 101.98735189783076 113.46694185817411 76.57072970951123 H 0.0 **** 0.06
5866 C 116.5403198524609 144.94564063484276 8.636688941077203 C 0.0 **** -0.24
5867 H 115.61249529974683 145.3730446679361 8.256808332302679 H 0.0 **** 0.06
5868 H 116.38559539526861 144.58678370505274 9.654383864237722 H 0.0 **** 0.06
5869 H 117.31973430452476 145.70776536055124 8.633384273412567 H 0.0 **** 0.06
5870 H 116.84327319919171 144.11332498874808 8.00037228300495 H 0.0 **** 0.06
5871 C 144.5254367851979 0.2165459610309597 13.440808446208685 C 0.0 **** -0.24
5872 H 143.81024391330578 0.8258058125971566 13.993167453044016 H 0.0 **** 0.06
5873 H 145.52726354215167 0.626043904268542 13.569895532614574 H 0.0 **** 0.06
5874 H 144.26439247471671 0.22020314950111697 12.382137380185647 H 0.0 **** 0.06
5875 H 144.49788499521208 -0.8062042752756007 13.81822704449317 H 0.0 **** 0.06
5876 C 106.66321174303162 89.88996436782108 107.77224673963697 C 0.0 **** -0.24
5877 H 106.16468539376102 90.75999134764416 107.34451616538375 H 0.0 **** 0.06
5878 H 107.00472883143608 90.12625896438331 108.78030817755176 H 0.0 **** 0.06
5879 H 107.51787274086102 89.61891637522407 107.15229394502903 H 0.0 **** 0.06
5880 H 105.96420582416432 89.05450163888912 107.81222992236432 H 0.0 **** 0.06
5881 C 102.94532906235234 145.38028273232345 123.38468547555665 C 0.0 **** -0.24
5882 H 103.2235888433469 145.27999478322397 124.43387121964315 H 0.0 **** 0.06
5883 H 101.86733523830348 145.24868503189427 123.2806213155929 H 0.0 **** 0.06
5884 H 103.46247000668345 144.62115204535243 122.79776321142775 H 0.0 **** 0.06
5885 H 103.22724090007178 146.37057677868566 123.02660542032731 H 0.0 **** 0.06
5886 C 58.17888452600164 114.82743770069168 52.425581796063284 C 0.0 **** -0.24
5887 H 57.45725394156452 115.5947753089943 52.70674760687797 H 0.0 **** 0.06
5888 H 57.809076483430005 114.28191773876223 51.55694095343611 H 0.0 **** 0.06
5889 H 58.317012414213224 114.13658845912009 53.257200038581686 H 0.0 **** 0.06
5890 H 59.13144687534975 115.29711918508444 52.18157125392847 H 0.0 **** 0.06
5891 C 62.22943272642215 18.269141753225682 1.0658698172547396 C 0.0 **** -0.24
5892 H 62.38301617231049 18.69097669416783 0.07256557996300828 H 0.0 **** 0.06
5893 H 62.77239332831944 18.863833735382116 1.8009597158387933 H 0.0 **** 0.06
5894 H 62.59577741805796 17.2432633874985 1.0853375988470688 H 0.0 **** 0.06
5895 H 61.16545819965535 18.28003259216436 1.3039444371935325 H 0.0 **** 0.06
5896 C 121.8121507270011 60.67150454292238 8.48057951549843 C 0.0 **** -0.24
5897 H 122.03595769375971 60.38848252483584 7.4516952141603205 H 0.0 **** 0.06
5898 H 121.90679292616528 61.75223029072362 8.588656481574947 H 0.0 **** 0.06
5899 H 122.51288661126131 60.17592226638811 9.153017136997576 H 0.0 **** 0.06
5900 H 120.79522066044109 60.36866806573107 8.728313578715124 H 0.0 **** 0.06
5901 C 69.53378232447653 2.566973693315731 68.42499025427315 C 0.0 **** -0.24
5902 H 69.95211875772378 2.7484023522291636 69.4152630383281 H 0.0 **** 0.06
5903 H 69.39238161079447 3.517877420332127 67.91029628590408 H 0.0 **** 0.06
5904 H 68.57378507974725 2.0602586331901875 68.52397023478281 H 0.0 **** 0.06
5905 H 70.21709363706381 1.9404595443633639 67.8514960715514 H 0.0 **** 0.06
5906 C 81.79703459187789 128.5904737495396 93.4505127404368 C 0.0 **** -0.24
5907 H 81.09179871545575 129.17652601295774 92.860937458406 H 0.0 **** 0.06
5908 H 81.63672727809251 127.5293807612501 93.25941555784442 H 0.0 **** 0.06
5909 H 81.645188831718 128.79683453016767 94.51006972263434 H 0.0 **** 0.06
5910 H 82.81606477070207 128.86034940281428 93.17025821879042 H 0.0 **** 0.06
5911 C 40.33504169273059 72.08731475521012 8.622185058452356 C 0.0 **** -0.24
5912 H 41.39574166878481 71.87243006832918 8.497329246363048 H 0.0 **** 0.06
5913 H 40.178014863284645 73.16624260310023 8.602104822180461 H 0.0 **** 0.06
5914 H 39.993349275948525 71.68735324531197 9.575939169143204 H 0.0 **** 0.06
5915 H 39.77314205806223 71.62312458074616 7.81113498701265 H 0.0 **** 0.06
5916 C 65.61346483027367 1.3151893935899466 55.925599618217916 C 0.0 **** -0.24
5917 H 66.08270203269784 0.8496273893288446 55.05794851527361 H 0.0 **** 0.06
5918 H 64.61692513811495 1.663413010880447 55.65630833195689 H 0.0 **** 0.06
5919 H 66.21803183945804 2.1605109632330652 56.254274338095115 H 0.0 **** 0.06
5920 H 65.53938731545793 0.5855709990725302 56.732785763050174 H 0.0 **** 0.06
5921 C 105.9961375394061 55.71575400760251 99.39320624750144 C 0.0 **** -0.24
5922 H 106.10336989364976 54.63116619111477 99.39772021750242 H 0.0 **** 0.06
5923 H 106.4826026130097 56.12556616310128 98.50710484324003 H 0.0 **** 0.06
5924 H 106.46114327050651 56.13155195954833 100.28740569740455 H 0.0 **** 0.06
5925 H 104.93765230171101 55.976303100107515 99.37989896544273 H 0.0 **** 0.06
5926 C 140.8969646018563 31.039670640746635 50.821588088220324 C 0.0 **** -0.24
5927 H 140.95653689481335 30.540489275166124 49.85436215321714 H 0.0 **** 0.06
5928 H 140.51473726464303 32.051699864899774 50.68501193449244 H 0.0 **** 0.06
5929 H 141.88962288169984 31.082224339854122 51.2687877950607 H 0.0 **** 0.06
5930 H 140.22735419634944 30.4823310234259 51.476744831342444 H 0.0 **** 0.06
5931 C 11.264987307449701 25.636643522447088 14.494958942135298 C 0.0 **** -0.24
5932 H 11.201230712824781 24.572886037655508 14.721850907436107 H 0.0 **** 0.06
5933 H 11.792254627146633 25.776555272442977 13.550714895600521 H 0.0 **** 0.06
5934 H 11.806842195033937 26.145895253116578 15.292271851876421 H 0.0 **** 0.06
5935 H 10.260585854238002 26.05149845179244 14.415046675727183 H 0.0 **** 0.06
5936 C 65.21576492208744 1.4965733904558043 85.21875997190239 C 0.0 **** -0.24
5937 H 65.78425548584347 1.8620875641659644 84.36382445009349 H 0.0 **** 0.06
5938 H 65.09059113812513 2.3026950022096813 85.94268360822525 H 0.0 **** 0.06
5939 H 65.75289121374529 0.6702571451922346 85.68474035865279 H 0.0 **** 0.06
5940 H 64.2369806332935 1.1523739417887882 84.88478849293585 H 0.0 **** 0.06
5941 C 50.53760141244666 12.39920623932926 29.63703872112343 C 0.0 **** -0.24
5942 H 51.14537537386232 13.0772514401323 30.23470697108906 H 0.0 **** 0.06
5943 H 50.43490601336467 11.447881638113245 30.158505908902868 H 0.0 **** 0.06
5944 H 51.01797009029772 12.235921642307886 28.67258812759301 H 0.0 **** 0.06
5945 H 49.55049884849373 12.836802359548642 29.481912514805728 H 0.0 **** 0.06
5946 C 108.2762736767206 107.80959342931978 24.69897530427074 C 0.0 **** -0.24
5947 H 107.30739834610394 107.54622143600248 24.27583981684878 H 0.0 **** 0.06
5948 H 109.06293113819795 107.2763135201646 24.164922415949206 H 0.0 **** 0.06
5949 H 108.29928737173829 107.53159812300673 25.753899940628408 H 0.0 **** 0.06
5950 H 108.43513666506077 108.88397754094298 24.602916691770133 H 0.0 **** 0.06
5951 C 45.87570806230772 14.854123409262712 2.034064844828862 C 0.0 **** -0.24
5952 H 45.117247404042416 14.522574825197069 2.7437710489858773 H 0.0 **** 0.06
5953 H 46.75902113370125 14.222253352427117 2.1247408012422113 H 0.0 **** 0.06
5954 H 46.14466826260579 15.888429413360171 2.2460019836666447 H 0.0 **** 0.06
5955 H 45.47946884095734 14.781804080198867 1.020715282894173 H 0.0 **** 0.06
5956 C 76.54850652126203 34.87899329398923 138.16781751078108 C 0.0 **** -0.24
5957 H 76.00162810385729 33.95689946021073 137.9701995280621 H 0.0 **** 0.06
5958 H 75.84641855643358 35.6660154309384 138.4429584547142 H 0.0 **** 0.06
5959 H 77.09553218115593 35.17634462262311 137.2729443205954 H 0.0 **** 0.06
5960 H 77.25132567041743 34.71565363749218 138.98484400939606 H 0.0 **** 0.06
5961 C 86.48498254835597 20.55409396924351 28.889601998600142 C 0.0 **** -0.24
5962 H 85.78377153896002 20.504440307040213 29.7231159851313 H 0.0 **** 0.06
5963 H 87.46600527134895 20.854114213351977 29.25787385997313 H 0.0 **** 0.06
5964 H 86.13233745715303 21.28237963919453 28.160222632240618 H 0.0 **** 0.06
5965 H 86.55820101673646 19.573872147453358 28.418740953475265 H 0.0 **** 0.06
5966 C 20.366197710281654 119.38482799072477 68.68897924610258 C 0.0 **** -0.24
5967 H 21.40299559917169 119.3368516066609 68.35549264003714 H 0.0 **** 0.06
5968 H 20.338600673600922 119.5947397975994 69.75843721794104 H 0.0 **** 0.06
5969 H 19.876319262604852 118.43130202847783 68.49177822858871 H 0.0 **** 0.06
5970 H 19.847973638365204 120.1784725619521 68.14945068879717 H 0.0 **** 0.06
5971 C 7.1487957068037815 20.34383096813636 72.32865232578425 C 0.0 **** -0.24
5972 H 7.5887362817418875 21.015296474078696 71.59254623216961 H 0.0 **** 0.06
5973 H 6.214438889390948 19.938516578616344 71.93831074683607 H 0.0 **** 0.06
5974 H 6.950993754680184 20.892966349277657 73.24868361600821 H 0.0 **** 0.06
5975 H 7.840575746006408 19.527221769233222 72.53531071717066 H 0.0 **** 0.06
5976 C 70.05328605662099 7.471943461653154 124.13718329344425 C 0.0 **** -0.24
5977 H 69.1016370394302 6.969369124965937 124.30877892674414 H 0.0 **** 0.06
5978 H 69.90756418995673 8.295837005721694 123.43773314306283 H 0.0 **** 0.06
5979 H 70.76908574423516 6.763733418246687 123.72148246538147 H 0.0 **** 0.06
5980 H 70.43358870608768 7.860359132250579 125.08177105663273 H 0.0 **** 0.06
5981 C 12.44433695092954 16.0510797666428 117.67497423440456 C 0.0 **** -0.24
5982 H 11.443900369849672 16.344884153837 117.99153306814084 H 0.0 **** 0.06
5983 H 12.377827286182224 15.177335141590476 117.02555314099102 H 0.0 **** 0.06
5984 H 13.04624834094048 15.809082704649171 118.55004904952277 H 0.0 **** 0.06
5985 H 12.909793243207986 16.87362233806553 117.13065069434909 H 0.0 **** 0.06
5986 C 95.99078967607932 90.34302331519251 17.80183638049894 C 0.0 **** -0.24
5987 H 96.98005241525965 89.91864506476936 17.634062196775545 H 0.0 **** 0.06
5988 H 96.00957210885653 91.40865395444408 17.568519951891147 H 0.0 **** 0.06
5989 H 95.70677978553235 90.20403960601114 18.84533187172667 H 0.0 **** 0.06
5990 H 95.26683562657436 89.84350842738104 17.158243888431997 H 0.0 **** 0.06
5991 C 11.835825440069641 9.586240537147432 5.578439909180826 C 0.0 **** -0.24
5992 H 12.373114269550229 10.451264606269788 5.188070822579547 H 0.0 **** 0.06
5993 H 11.462849404305075 8.986528533656365 4.748359025877619 H 0.0 **** 0.06
5994 H 10.998014880131734 9.924345982124109 6.1879307241190915 H 0.0 **** 0.06
5995 H 12.510259033749662 8.984979150797525 6.1878256269516 H 0.0 **** 0.06
5996 C 74.87990298719399 45.81457107057605 37.78948525750806 C 0.0 **** -0.24
5997 H 74.19510999662461 45.80695915129286 36.94058091528156 H 0.0 **** 0.06
5998 H 75.24545734747275 46.828618910199324 37.95082303526438 H 0.0 **** 0.06
5999 H 75.72131711637729 45.152971562263346 37.58351134928209 H 0.0 **** 0.06
6000 H 74.35584184425844 45.47011213782331 38.68072306890072 H 0.0 **** 0.06
6001 C 36.33488949737847 142.61219180277934 37.918354845835324 C 0.0 **** -0.24
6002 H 36.48756321423622 141.55694390598205 38.14655551452228 H 0.0 **** 0.06
6003 H 35.835567865182156 142.70671265114277 36.953344133768354 H 0.0 **** 0.06
6004 H 37.29945147082225 143.11852675233123 37.88042044626107 H 0.0 **** 0.06
6005 H 35.71660816955995 143.06529989256842 38.6935646069289 H 0.0 **** 0.06
6006 C 99.38134921401169 99.25548866158704 135.41518764721096 C 0.0 **** -0.24
6007 H 99.37703143322895 99.14354302053056 134.33090104666454 H 0.0 **** 0.06
6008 H 100.37094149938704 99.00946857103308 135.8009908932809 H 0.0 **** 0.06
6009 H 98.64300527636576 98.5835205495325 135.85264505174231 H 0.0 **** 0.06
6010 H 99.13604027226936 100.28506044150451 135.6757243399799 H 0.0 **** 0.06
6011 C 95.19331692241389 129.58915102653637 36.5601058558901 C 0.0 **** -0.24
6012 H 94.61655232946592 130.32763860387357 37.117206036355356 H 0.0 **** 0.06
6013 H 96.21962033988112 129.57663090680902 36.92818529679744 H 0.0 **** 0.06
6014 H 95.19064296393847 129.8495596262796 35.501971138626544 H 0.0 **** 0.06
6015 H 94.74748175804925 128.6041648038245 36.69297036940023 H 0.0 **** 0.06
6016 C 137.09077999470856 100.47586073996567 113.4365338594791 C 0.0 **** -0.24
6017 H 137.18470846328904 101.16320423272361 114.27749181229662 H 0.0 **** 0.06
6018 H 136.23992652779035 99.81530141055723 113.60017249000869 H 0.0 **** 0.06
6019 H 138.00084594962746 99.882029482769 113.35066595147471 H 0.0 **** 0.06
6020 H 136.93927175945387 101.04454075815495 112.51862252204391 H 0.0 **** 0.06
6021 C 43.85126245776108 131.4498009988438 53.64380604062096 C 0.0 **** -0.24
6022 H 43.621937294113664 131.01086030240415 52.67220736758462 H 0.0 **** 0.06
6023 H 44.68104981430707 130.90847728867615 54.09974961123261 H 0.0 **** 0.06
6024 H 42.975411650015104 131.3822595797316 54.288185869030315 H 0.0 **** 0.06
6025 H 44.12763769119741 132.49585226055424 53.513685481197484 H 0.0 **** 0.06
6026 C 57.39166938968711 40.054362507011064 34.47986534295933 C 0.0 **** -0.24
6027 H 56.81874986871239 39.24370442542076 34.02980580544431 H 0.0 **** 0.06
6028 H 57.069105305795915 41.00594446817476 34.057565603147054 H 0.0 **** 0.06
6029 H 58.45199914991545 39.90583472271953 34.2763409481239 H 0.0 **** 0.06
6030 H 57.22589213790508 40.059648228537185 35.55741018317019 H 0.0 **** 0.06
6031 C 70.72762165510986 44.38183927240533 83.11379538609975 C 0.0 **** -0.24
6032 H 69.79758211549003 44.28117861985491 83.673684486853 H 0.0 **** 0.06
6033 H 71.5734642706663 44.287219364793174 83.79485576924168 H 0.0 **** 0.06
6034 H 70.755413932472 45.35976194982584 82.63152493077808 H 0.0 **** 0.06
6035 H 70.78206098710301 43.60140004526417 82.35565040468634 H 0.0 **** 0.06
6036 C 30.572122139419832 52.322067636840416 122.28308921938395 C 0.0 **** -0.24
6037 H 30.635776925959362 52.72857006283397 121.27355479318567 H 0.0 **** 0.06
6038 H 29.543467407622757 52.384306542435155 122.63609430846668 H 0.0 **** 0.06
6039 H 31.220080086237942 52.89544971174607 122.94710236241204 H 0.0 **** 0.06
6040 H 30.891590812111417 51.27974779887751 122.27587546687892 H 0.0 **** 0.06
6041 C 25.857286038931477 145.0849501376605 37.85861659652943 C 0.0 **** -0.24
6042 H 26.13326504382627 144.12515093619308 37.42124947054555 H 0.0 **** 0.06
6043 H 26.665612404317528 145.43741390326502 38.50058291110048 H 0.0 **** 0.06
6044 H 24.94844230572079 144.96783467051753 38.448335941031985 H 0.0 **** 0.06
6045 H 25.682710480370076 145.80894336280952 37.06256440528887 H 0.0 **** 0.06
6046 C 69.91059400186501 54.31140247815017 4.385158642248712 C 0.0 **** -0.24
6047 H 69.00436048131962 53.711321814057044 4.470275744069113 H 0.0 **** 0.06
6048 H 70.05880112413459 54.59797973472135 3.3439987018442707 H 0.0 **** 0.06
6049 H 70.7655176249846 53.72857285394679 4.727608804293197 H 0.0 **** 0.06
6050 H 69.8122259155545 55.20746792941401 4.9978766198177595 H 0.0 **** 0.06
6051 C 0.25566482092071396 39.886184386244125 108.95956120817326 C 0.0 **** -0.24
6052 H -0.06865238120158779 40.25814030225971 107.9870597442492 H 0.0 **** 0.06
6053 H -0.1062788737130802 38.86701524127606 109.09691816274531 H 0.0 **** 0.06
6054 H -0.14743977399146502 40.524252750597356 109.74505549835104 H 0.0 **** 0.06
6055 H 1.3441879384216406 39.895635797975416 109.00652874509385 H 0.0 **** 0.06
6056 C 123.09080526072577 36.78915433886715 89.37471125466472 C 0.0 **** -0.24
6057 H 123.55517465409261 35.84677834781223 89.08691899280741 H 0.0 **** 0.06
6058 H 123.85561403203027 37.56141515184724 89.45817792173729 H 0.0 **** 0.06
6059 H 122.58886047266358 36.66836043233313 90.33464935409974 H 0.0 **** 0.06
6060 H 122.36117455790739 37.079948554916484 88.61860895990425 H 0.0 **** 0.06
6061 C 60.864196258334005 77.80412078683774 131.98598254687562 C 0.0 **** -0.24
6062 H 61.58995441065366 77.29524377660158 131.35105166837428 H 0.0 **** 0.06
6063 H 60.397099815880466 78.61391610089723 131.42605547001995 H 0.0 **** 0.06
6064 H 61.37121505077576 78.2110180427235 132.86110395547314 H 0.0 **** 0.06
6065 H 60.10095644126011 77.09463938644654 132.30623718971606 H 0.0 **** 0.06
6066 C 62.2110221686908 45.34931747532295 7.786822287742609 C 0.0 **** -0.24
6067 H 61.33410295124703 45.132481873871086 7.175698761369688 H 0.0 **** 0.06
6068 H 63.11283681913366 45.09225922813903 7.230401289416875 H 0.0 **** 0.06
6069 H 62.169558441116905 44.76190543080588 8.70384885689515 H 0.0 **** 0.06
6070 H 62.2263349172343 46.41015442084068 8.034475958195003 H 0.0 **** 0.06
6071 C 12.417298507170443 20.312096753301546 39.490777199327994 C 0.0 **** -0.24
6072 H 11.88773880243886 19.413403530235485 39.1736180416716 H 0.0 **** 0.06
6073 H 11.823585272732998 20.838469587981535 40.237563710672134 H 0.0 **** 0.06
6074 H 12.578018741384 20.960406575990476 38.629479764781536 H 0.0 **** 0.06
6075 H 13.37982134512177 20.03330919578974 39.920405188451866 H 0.0 **** 0.06
6076 C 57.166626731278754 7.3645355354082085 100.50362782981193 C 0.0 **** -0.24
6077 H 56.26253812589874 6.893286698628202 100.888550163112 H 0.0 **** 0.06
6078 H 57.79789113526908 7.673173168388246 101.33730461928283 H 0.0 **** 0.06
6079 H 56.89634196104154 8.237019818535828 99.90922881160756 H 0.0 **** 0.06
6080 H 57.70955067073564 6.653814138720577 99.87992387485482 H 0.0 **** 0.06
6081 C 74.91580009698812 106.27400535719822 53.417681989423414 C 0.0 **** -0.24
6082 H 75.94122895053226 106.63761639702021 53.34747089165907 H 0.0 **** 0.06
6083 H 74.73538407356344 105.54239292432557 52.62991665942391 H 0.0 **** 0.06
6084 H 74.2262471685221 107.11061655759214 53.30328193903816 H 0.0 **** 0.06
6085 H 74.76237076978374 105.80633125669318 54.3900205396215 H 0.0 **** 0.06
6086 C 29.97429662208644 51.16894009438926 78.77892276612653 C 0.0 **** -0.24
6087 H 30.479969021645537 51.38826767657952 77.83849481178311 H 0.0 **** 0.06
6088 H 29.67580693348811 50.12144895752863 78.7958359463523 H 0.0 **** 0.06
6089 H 29.091845154930873 51.8010803179115 78.87241606501863 H 0.0 **** 0.06
6090 H 30.652748761857517 51.366752202616226 79.60976091577771 H 0.0 **** 0.06
6091 C 122.99999550970807 99.88081200003731 115.35645826981705 C 0.0 **** -0.24
6092 H 123.41732982409474 98.90613410752884 115.61348757788382 H 0.0 **** 0.06
6093 H 122.18327001894282 99.74950233545776 114.64546022808891 H 0.0 **** 0.06
6094 H 123.77609937687431 100.50006491595606 114.90824130327785 H 0.0 **** 0.06
6095 H 122.62410989288357 100.36352077786059 116.25831364355638 H 0.0 **** 0.06
6096 C 0.3003179258663735 94.4419426824763 102.22394852572543 C 0.0 **** -0.24
6097 H 1.0679262694743379 94.30661278843755 102.98613758562936 H 0.0 **** 0.06
6098 H -0.6844609662184986 94.36975512529652 102.68548117116654 H 0.0 **** 0.06
6099 H 0.4039991498264115 93.66729507921507 101.4641622458741 H 0.0 **** 0.06
6100 H 0.4160213539607227 95.42208387861244 101.76224969458494 H 0.0 **** 0.06
6101 C 84.61682476941053 57.68018446916767 86.95329846665379 C 0.0 **** -0.24
6102 H 85.34609172200066 56.978778335657125 87.35788346069597 H 0.0 **** 0.06
6103 H 84.4244830896738 58.46593840020324 87.68430623951771 H 0.0 **** 0.06
6104 H 83.68822545274358 57.152810603751334 86.73404968441345 H 0.0 **** 0.06
6105 H 85.0078502743919 58.12311656409429 86.03820773927568 H 0.0 **** 0.06
6106 C 36.82375328916619 74.99806602493088 143.9756922469867 C 0.0 **** -0.24
6107 H 37.25775734240307 74.0571434253186 143.63856466450835 H 0.0 **** 0.06
6108 H 36.34531365763564 75.49965379474465 143.13441219201587 H 0.0 **** 0.06
6109 H 37.60997577262157 75.63587527409302 144.3808767840905 H 0.0 **** 0.06
6110 H 36.08229083246363 74.79944471169954 144.74984979854588 H 0.0 **** 0.06
6111 C 109.1803589455772 14.876779077324272 6.0558799538691375 C 0.0 **** -0.24
6112 H 109.77590254089704 15.392003452297331 5.302022155449194 H 0.0 **** 0.06
6113 H 108.376213618347 15.531312887495972 6.392440038705409 H 0.0 **** 0.06
6114 H 109.81524866665923 14.614991834915315 6.903475649151385 H 0.0 **** 0.06
6115 H 108.75572711882377 13.96992142998181 5.627002521889498 H 0.0 **** 0.06
6116 C 84.44135536861101 134.68998234912695 2.5049426169665594 C 0.0 **** -0.24
6117 H 84.97486535036444 135.47919524834282 1.9736017939311807 H 0.0 **** 0.06
6118 H 83.7885617793051 134.16203640532765 1.8105195021554437 H 0.0 **** 0.06
6119 H 83.8438180854542 135.13057795479315 3.302872810458979 H 0.0 **** 0.06
6120 H 85.15966682529191 133.99154305272762 2.9325312418811507 H 0.0 **** 0.06
6121 C 9.07599400743328 71.33061380711075 143.0520861353011 C 0.0 **** -0.24
6122 H 9.539874303821477 71.39872578196028 144.03560262393066 H 0.0 **** 0.06
6123 H 8.433816132059007 70.4498450439998 143.01457717511298 H 0.0 **** 0.06
6124 H 9.851190381993149 71.24702155120136 142.29010199437252 H 0.0 **** 0.06
6125 H 8.479798869522938 72.2238067635812 142.86765577029487 H 0.0 **** 0.06
6126 C 54.31925563030042 63.53784699415917 142.39193941888556 C 0.0 **** -0.24
6127 H 53.31148330233957 63.94613775807974 142.46292146189717 H 0.0 **** 0.06
6128 H 54.32616356009487 62.70771659718619 141.6848858536972 H 0.0 **** 0.06
6129 H 54.637025218366944 63.18168636410846 143.37238729346257 H 0.0 **** 0.06
6130 H 55.00282977217476 64.31426718560081 142.04808627355806 H 0.0 **** 0.06
6131 C 116.04596948540724 75.26389814272042 61.29861036215499 C 0.0 **** -0.24
6132 H 116.10333432568437 74.76378544375146 60.3320574980398 H 0.0 **** 0.06
6133 H 116.91852789124361 75.90504643822695 61.427833552007655 H 0.0 **** 0.06
6134 H 116.02281258579815 74.51755879065797 62.092636950581806 H 0.0 **** 0.06
6135 H 115.14013190403172 75.86897935132711 61.34220994737831 H 0.0 **** 0.06
6136 C 119.53020320989927 77.66627077528867 5.4727372900062505 C 0.0 **** -0.24
6137 H 120.28030932881606 78.29464754661504 5.953123955255421 H 0.0 **** 0.06
6138 H 119.13928849547497 76.9497660700093 6.195719741030814 H 0.0 **** 0.06
6139 H 119.98453012656907 77.13052046733517 4.639271899665886 H 0.0 **** 0.06
6140 H 118.71637820288893 78.29098448186001 5.10328961918637 H 0.0 **** 0.06
6141 C 112.52987862014487 0.3103896542444602 100.15539531138928 C 0.0 **** -0.24
6142 H 112.75046166004392 -0.694168660792883 99.79341238053834 H 0.0 **** 0.06
6143 H 111.60528305845168 0.6652645405877422 99.70082878160416 H 0.0 **** 0.06
6144 H 113.3474720127997 0.9800848403960174 99.88816075182689 H 0.0 **** 0.06
6145 H 112.41774266784381 0.2886713216954888 101.23918482910815 H 0.0 **** 0.06
6146 C 110.29155569078739 50.10024613278314 79.93560927466032 C 0.0 **** -0.24
6147 H 110.9693802155478 49.59113995324154 80.62056014479018 H 0.0 **** 0.06
6148 H 110.35333733505513 49.63613916172423 78.9509033910214 H 0.0 **** 0.06
6149 H 110.57305534292607 51.150763811120186 79.86022049761942 H 0.0 **** 0.06
6150 H 109.27109555167738 50.0240141225202 80.31009512272485 H 0.0 **** 0.06
6151 C 88.897562425904 140.63054067504297 86.19531654323112 C 0.0 **** -0.24
6152 H 88.36161673972958 141.50972629894912 85.83907685798243 H 0.0 **** 0.06
6153 H 88.4171926605807 139.7321355346762 85.8076349827831 H 0.0 **** 0.06
6154 H 88.8810300835772 140.61133128171477 87.28468174591251 H 0.0 **** 0.06
6155 H 89.92975557855968 140.6692207100535 85.84774923995508 H 0.0 **** 0.06
6156 C 34.19892649151927 41.82006464523651 26.045380272424552 C 0.0 **** -0.24
6157 H 33.22562868261846 41.51526169870591 26.429388627502505 H 0.0 **** 0.06
6158 H 34.96755656795008 41.147989327061765 26.4285649816575 H 0.0 **** 0.06
6159 H 34.41299966579969 42.83949230037352 26.36650926828193 H 0.0 **** 0.06
6160 H 34.18857466120423 41.77687869718298 24.956222012187 H 0.0 **** 0.06
6161 C 31.408265766609475 3.352459511941788 35.74954330971002 C 0.0 **** -0.24
6162 H 31.13166623137625 3.737678102968516 36.73122821468475 H 0.0 **** 0.06
6163 H 32.47916933661403 3.4832617018127223 35.59718456857405 H 0.0 **** 0.06
6164 H 30.861287812658766 3.896401876937091 34.97891839859301 H 0.0 **** 0.06
6165 H 31.158589289590672 2.2933176610079897 35.692184242428894 H 0.0 **** 0.06
6166 C 73.96306927730899 87.50389739785577 5.849667634775528 C 0.0 **** -0.24
6167 H 74.08192986360487 86.67433733387796 6.54640513334499 H 0.0 **** 0.06
6168 H 72.94259243866242 87.5111083312413 5.464192597663583 H 0.0 **** 0.06
6169 H 74.6633676088941 87.38766176705882 5.023453162671416 H 0.0 **** 0.06
6170 H 74.1624503670142 88.4430348853165 6.365590932065771 H 0.0 **** 0.06
6171 C 21.029387052043212 104.49273142568502 57.76163450465749 C 0.0 **** -0.24
6172 H 20.34874435324386 104.47353221807177 56.910915531522804 H 0.0 **** 0.06
6173 H 21.662495837281902 103.6062857810322 57.74055760058995 H 0.0 **** 0.06
6174 H 20.452279339142542 104.50705925172522 58.687176710873445 H 0.0 **** 0.06
6175 H 21.651645413119716 105.38641209064103 57.70874478654993 H 0.0 **** 0.06
6176 C 128.52113577630206 40.4295229423887 102.46436413121467 C 0.0 **** -0.24
6177 H 128.00147309483225 40.04703568224019 101.58541525645408 H 0.0 **** 0.06
6178 H 129.38515959850668 41.015035688325085 102.15011175482262 H 0.0 **** 0.06
6179 H 128.85210876430403 39.594405937650244 103.08130849125547 H 0.0 **** 0.06
6180 H 127.84309907590642 41.06033842727635 103.04035980089215 H 0.0 **** 0.06
6181 C 41.6463585454466 34.22602586270875 54.347619567217194 C 0.0 **** -0.24
6182 H 40.88105277931879 33.53573713145141 54.70255399947857 H 0.0 **** 0.06
6183 H 41.444526039240074 35.22400283641181 54.73939448558126 H 0.0 **** 0.06
6184 H 41.63351005811806 34.25359791510007 53.25875753429693 H 0.0 **** 0.06
6185 H 42.62495974300491 33.89152699668463 54.69135359774225 H 0.0 **** 0.06
6186 C 64.7065996278161 96.91274052984338 26.72408234508933 C 0.0 **** -0.24
6187 H 64.93395501024219 95.86660233699098 26.9303984433526 H 0.0 **** 0.06
6188 H 63.719383456312244 97.15476524529657 27.118772351757883 H 0.0 **** 0.06
6189 H 64.71973080239717 97.08146086635946 25.647215628859982 H 0.0 **** 0.06
6190 H 65.4542890558911 97.54696888893113 27.200792763606046 H 0.0 **** 0.06
6191 C 74.38006560428067 99.19148627235025 9.236625066057329 C 0.0 **** -0.24
6192 H 74.86635582536405 99.8313046889816 8.499797311552655 H 0.0 **** 0.06
6193 H 73.611844665179 98.59374976079205 8.74592296299317 H 0.0 **** 0.06
6194 H 73.92214956741134 99.81000707099824 10.008461069463884 H 0.0 **** 0.06
6195 H 75.12051925492818 98.5325809052304 9.689920771113208 H 0.0 **** 0.06
6196 C 60.29566633256755 38.702449551828124 31.18798018528613 C 0.0 **** -0.24
6197 H 59.87785185530794 37.99534931094357 31.903480806112164 H 0.0 **** 0.06
6198 H 59.486107723922004 39.18477283352999 30.639089431202414 H 0.0 **** 0.06
6199 H 60.94294559315753 38.17276592900163 30.48865712964379 H 0.0 **** 0.06
6200 H 60.8758128293521 39.45653151989677 31.719003993161557 H 0.0 **** 0.06
6201 C 94.67631224030099 89.92959681923547 33.68982060043579 C 0.0 **** -0.24
6202 H 93.78200016459755 89.48920735549147 34.12890585336747 H 0.0 **** 0.06
6203 H 94.74654650392289 89.64005623246254 32.64126669199426 H 0.0 **** 0.06
6204 H 95.55616424153261 89.57244538199629 34.2252617418943 H 0.0 **** 0.06
6205 H 94.62095424768671 91.01546583082649 33.76444541621695 H 0.0 **** 0.06
6206 C 84.91477119045294 105.11730373673936 0.2554021444377099 C 0.0 **** -0.24
6207 H 84.37366712376564 104.26356315270141 -0.15243029157832666 H 0.0 **** 0.06
6208 H 84.94414151366729 105.91636602532728 -0.48605438428546677 H 0.0 **** 0.06
6209 H 85.93197174481327 104.81572204165943 0.5067295024925329 H 0.0 **** 0.06
6210 H 84.40863034701411 105.47236870320731 1.153706803559544 H 0.0 **** 0.06
6211 C 141.68650915654803 41.51079754821748 105.72002081497673 C 0.0 **** -0.24
6212 H 142.20235219001728 42.37087904970369 106.14812210654098 H 0.0 **** 0.06
6213 H 140.73897921883724 41.83375031616302 105.28851249251811 H 0.0 **** 0.06
6214 H 141.49756326743795 40.77529123035393 106.50276908801528 H 0.0 **** 0.06
6215 H 142.30677300344024 41.064503047733496 104.94373619800345 H 0.0 **** 0.06
6216 C 73.46652184308232 100.13284856080946 90.45465428109483 C 0.0 **** -0.24
6217 H 73.00464654613543 100.14479856358227 89.46793129064818 H 0.0 **** 0.06
6218 H 72.74349239918617 99.77770291368499 91.18946508772098 H 0.0 **** 0.06
6219 H 73.78807642464557 101.13996494779353 90.71812360881113 H 0.0 **** 0.06
6220 H 74.32946300909613 99.46698059997837 90.44289405957149 H 0.0 **** 0.06
6221 C 70.86812096493458 87.59968081253339 81.55501095214814 C 0.0 **** -0.24
6222 H 71.28835842491489 86.59493039660867 81.58490957982448 H 0.0 **** 0.06
6223 H 70.0302691720743 87.6637050190179 82.24871415697376 H 0.0 **** 0.06
6224 H 70.52092492313423 87.81746020016251 80.54471249705719 H 0.0 **** 0.06
6225 H 71.63284681534779 88.32259745762667 81.83947325975817 H 0.0 **** 0.06
6226 C 94.5871541890269 48.755454625468204 145.5200688569241 C 0.0 **** -0.24
6227 H 95.19047341090102 49.01487640465655 146.3896268617928 H 0.0 **** 0.06
6228 H 93.5307397921438 48.860182883900535 145.76650443313946 H 0.0 **** 0.06
6229 H 94.79235404561418 47.72518509807304 145.22976624816994 H 0.0 **** 0.06
6230 H 94.83605318681388 49.4224419296431 144.693888381518 H 0.0 **** 0.06
6231 C 91.23508750245837 61.899255426075314 48.195323585059 C 0.0 **** -0.24
6232 H 91.99340999724011 61.52101449120201 48.880672892573344 H 0.0 **** 0.06
6233 H 91.35721306851106 62.97546325476233 48.07686721637765 H 0.0 **** 0.06
6234 H 90.24375515217727 61.68770203427876 48.59758877490793 H 0.0 **** 0.06
6235 H 91.34592085182354 61.41146634126403 47.22648990120739 H 0.0 **** 0.06
6236 C 33.216029528154834 113.65918436183925 22.242407018601625 C 0.0 **** -0.24
6237 H 34.28613574676153 113.78703472558179 22.40381592985733 H 0.0 **** 0.06
6238 H 32.945540310202716 114.06359487463122 21.266301656807258 H 0.0 **** 0.06
6239 H 32.66545959867275 114.18792318096924 23.021004440520613 H 0.0 **** 0.06
6240 H 32.96698245698232 112.59818466617507 22.278506047221214 H 0.0 **** 0.06
6241 C 47.93374755881399 51.212170014078794 31.929544560391577 C 0.0 **** -0.24
6242 H 48.533663198573095 52.101026840417006 32.12188180046641 H 0.0 **** 0.06
6243 H 47.284575491625475 51.39073134691594 31.072610867510264 H 0.0 **** 0.06
6244 H 47.325881517331354 50.987842475685426 32.806868895835876 H 0.0 **** 0.06
6245 H 48.59193641752296 50.36872982383008 31.718750800913753 H 0.0 **** 0.06
6246 C 134.12224410484683 74.21306061309328 141.60113954858204 C 0.0 **** -0.24
6247 H 133.57405820816902 73.35890427951716 141.20294976887533 H 0.0 **** 0.06
6248 H 133.9220175968015 74.30833709247365 142.6682429290342 H 0.0 **** 0.06
6249 H 133.80361387202694 75.12081251413618 141.08841138320147 H 0.0 **** 0.06
6250 H 135.19058844605368 74.06324696524084 141.4433987439592 H 0.0 **** 0.06
6251 C 138.73362333557444 4.534785072678062 107.51573756535068 C 0.0 **** -0.24
6252 H 139.47903493171455 5.326770019714672 107.43760734780166 H 0.0 **** 0.06
6253 H 138.54708280907562 4.113557416302001 106.52817907914768 H 0.0 **** 0.06
6254 H 137.80781150986874 4.947292329675804 107.91693842435153 H 0.0 **** 0.06
6255 H 139.10166516491196 3.7542724615287284 108.18132764415951 H 0.0 **** 0.06
6256 C 23.984468328167935 28.45451116491813 19.8900996592875 C 0.0 **** -0.24
6257 H 23.283085998619164 27.69532716824682 20.234363115349822 H 0.0 **** 0.06
6258 H 24.678924664581636 28.69986305027288 20.69352590942657 H 0.0 **** 0.06
6259 H 23.436967295274094 29.34943014279429 19.596604377310825 H 0.0 **** 0.06
6260 H 24.541348034571257 28.071914729209198 19.03373587390564 H 0.0 **** 0.06
6261 C 127.86631895293553 82.0956335510412 45.090615297059585 C 0.0 **** -0.24
6262 H 128.41041001703482 82.51313311481593 44.243643097285826 H 0.0 **** 0.06
6263 H 126.79556254255647 82.13497615899611 44.89002174257129 H 0.0 **** 0.06
6264 H 128.09025536404698 82.67590700785335 45.98680287739772 H 0.0 **** 0.06
6265 H 128.17060039909697 81.0602272576747 45.24281087233361 H 0.0 **** 0.06
6266 C 129.68154907564937 83.44315410456227 135.08851911516106 C 0.0 **** -0.24
6267 H 129.72593230272267 84.5068974537212 134.8535869135196 H 0.0 **** 0.06
6268 H 129.13614216181008 82.92044479564609 134.30214247771514 H 0.0 **** 0.06
6269 H 129.17080846168162 83.30356288734177 136.04135447324742 H 0.0 **** 0.06
6270 H 130.6937211303648 83.04384263100556 135.15645286979063 H 0.0 **** 0.06
6271 C 69.82536111386901 27.983185061636362 58.18780977177522 C 0.0 **** -0.24
6272 H 69.85541322673447 29.067061723706075 58.29726354993514 H 0.0 **** 0.06
6273 H 70.21197396953255 27.515307509086966 59.09368726403369 H 0.0 **** 0.06
6274 H 70.43605516800048 27.686634096085413 57.33584021006786 H 0.0 **** 0.06
6275 H 68.7959735168191 27.663458822254796 58.025346821817706 H 0.0 **** 0.06
6276 C 102.0069796642286 4.836933374162811 115.1677733657457 C 0.0 **** -0.24
6277 H 102.10816133502834 5.72899748836852 115.78595843914299 H 0.0 **** 0.06
6278 H 101.07890814643775 4.32448289358382 115.41991347123472 H 0.0 **** 0.06
6279 H 102.85070964196706 4.170976212511789 115.35119288516141 H 0.0 **** 0.06
6280 H 101.99114556102626 5.122746804336089 114.11697948795118 H 0.0 **** 0.06
6281 C 145.31928602001483 34.54154595908483 114.16558925812045 C 0.0 **** -0.24
6282 H 145.56690587567363 35.05813131382783 113.23827654171417 H 0.0 **** 0.06
6283 H 144.60709930757332 35.13965375821019 114.73551830296903 H 0.0 **** 0.06
6284 H 146.22520737749386 34.39677217395298 114.75386803993798 H 0.0 **** 0.06
6285 H 144.87611653814054 33.57271432703763 113.93397103609384 H 0.0 **** 0.06
6286 C 50.294267545324374 31.642203410611387 3.9853937785003666 C 0.0 **** -0.24
6287 H 49.59188416323724 31.298751980264854 4.745381034996825 H 0.0 **** 0.06
6288 H 51.25262933843595 31.870157501341282 4.452407183847555 H 0.0 **** 0.06
6289 H 49.90002988574463 32.538043380674935 3.505892681264527 H 0.0 **** 0.06
6290 H 50.43101162964331 30.859964266974544 3.2382225081959177 H 0.0 **** 0.06
6291 C 62.64374407262399 93.6120965262541 35.8570965982089 C 0.0 **** -0.24
6292 H 62.48607692332338 94.6155784033084 35.461953480815225 H 0.0 **** 0.06
6293 H 63.509461787497216 93.61560030663298 36.52067894665595 H 0.0 **** 0.06
6294 H 62.82052689397277 92.9219564623933 35.03266201317956 H 0.0 **** 0.06
6295 H 61.76097954406089 93.29640856746781 36.412475536021475 H 0.0 **** 0.06
6296 C 109.24933615973987 88.8916220578634 69.89189694354111 C 0.0 **** -0.24
6297 H 108.4311047856815 88.68078354936324 70.58023583069378 H 0.0 **** 0.06
6298 H 109.725043506259 89.83142947910301 70.17128986712915 H 0.0 **** 0.06
6299 H 108.85886776529082 88.96918923683705 68.87720109671703 H 0.0 **** 0.06
6300 H 109.98112383649158 88.08441871856985 69.93853933238553 H 0.0 **** 0.06
6301 C 121.20372339083148 122.46479617292906 38.5855046443688 C 0.0 **** -0.24
6302 H 121.51333832508477 123.21094708702745 39.31607854573451 H 0.0 **** 0.06
6303 H 121.53373012244212 121.4782603765523 38.911018970654766 H 0.0 **** 0.06
6304 H 121.64892373186443 122.69681067844621 37.61714835979291 H 0.0 **** 0.06
6305 H 120.11687432757724 122.47298641703875 38.496409302288754 H 0.0 **** 0.06
6306 C 97.94847192817593 17.622814726142394 117.69327757855795 C 0.0 **** -0.24
6307 H 98.78815877074587 18.16227107807211 117.25337211963314 H 0.0 **** 0.06
6308 H 97.01364095278305 18.050380643173895 117.33111142745047 H 0.0 **** 0.06
6309 H 97.99164371812941 17.70719722634456 118.77841241659634 H 0.0 **** 0.06
6310 H 98.00248087180566 16.57176949775166 117.40804101649722 H 0.0 **** 0.06
6311 C 138.04953170328034 117.85604130109323 88.27716105253428 C 0.0 **** -0.24
6312 H 138.1812061533105 118.61678938032179 87.50768714241212 H 0.0 **** 0.06
6313 H 138.7771354319702 118.01607197290241 89.0724577699898 H 0.0 **** 0.06
6314 H 138.1986252668357 116.86876061718027 87.84024590545937 H 0.0 **** 0.06
6315 H 137.04166356343487 117.92445051455917 88.68578173247685 H 0.0 **** 0.06
6316 C 47.708038228189935 106.71179159083863 126.70265938133099 C 0.0 **** -0.24
6317 H 47.85307478661707 107.16927336759409 125.72392155961603 H 0.0 **** 0.06
6318 H 47.56654059599043 107.49172762639932 127.4514845537243 H 0.0 **** 0.06
6319 H 48.585936085630635 106.11712486104625 126.95905324785642 H 0.0 **** 0.06
6320 H 46.82871761562109 106.06831801570047 126.67618469935911 H 0.0 **** 0.06
6321 C 131.03344266698213 14.85698914095613 36.97395269638537 C 0.0 **** -0.24
6322 H 131.04052263598152 15.941972227115315 36.869878339346656 H 0.0 **** 0.06
6323 H 131.81271632073972 14.55448090524672 37.67398288694693 H 0.0 **** 0.06
6324 H 131.2192657999169 14.398413039395678 36.00226825292242 H 0.0 **** 0.06
6325 H 130.06157034915398 14.53499140343169 37.34854390059826 H 0.0 **** 0.06
6326 C 96.63349327590205 112.92577300190375 77.0161760834495 C 0.0 **** -0.24
6327 H 96.30101740356181 113.09511149839291 78.0405984516972 H 0.0 **** 0.06
6328 H 96.66265484689191 113.87626401642585 76.48196039761864 H 0.0 **** 0.06
6329 H 95.93943976687478 112.24932551177274 76.51681104627681 H 0.0 **** 0.06
6330 H 97.6286814619838 112.4828141939628 77.02559966857194 H 0.0 **** 0.06
6331 C 34.19827280591505 111.37984666981089 86.15079035705622 C 0.0 **** -0.24
6332 H 34.98193210906871 110.81739918882488 85.64415263385058 H 0.0 **** 0.06
6333 H 33.76045680722385 110.76515541904621 86.93691864732827 H 0.0 **** 0.06
6334 H 33.426381260944424 111.65483765261115 85.43203080310175 H 0.0 **** 0.06
6335 H 34.624679951883564 112.28210756147467 86.58913282935794 H 0.0 **** 0.06
6336 C 20.314825808346797 105.36711015955414 116.91718084550985 C 0.0 **** -0.24
6337 H 20.616407353185906 106.07527026357504 116.14472257455367 H 0.0 **** 0.06
6338 H 20.51005796243996 105.79799717820809 117.89913892813286 H 0.0 **** 0.06
6339 H 20.884040195090023 104.44374171581859 116.80534328474965 H 0.0 **** 0.06
6340 H 19.25145714531763 105.15323293228593 116.81759951810318 H 0.0 **** 0.06
6341 C 122.46000137802439 71.67016606926163 95.66316553621976 C 0.0 **** -0.24
6342 H 122.84394905398014 72.66940355368027 95.86882188047773 H 0.0 **** 0.06
6343 H 123.0190395157945 71.22999188519307 94.83658704263176 H 0.0 **** 0.06
6344 H 121.40573350459213 71.73435051649258 95.39537369593965 H 0.0 **** 0.06
6345 H 122.57330735996239 71.04786456958465 96.55087522717095 H 0.0 **** 0.06
6346 C 10.960279100509808 104.04498416213224 51.30890170948631 C 0.0 **** -0.24
6347 H 10.900544891183245 104.88238127240228 52.00472915836704 H 0.0 **** 0.06
6348 H 12.00365407822676 103.85908788305682 51.05362707950741 H 0.0 **** 0.06
6349 H 10.400759423224656 104.2837507519335 50.40471747952128 H 0.0 **** 0.06
6350 H 10.535555799363294 103.15569577234598 51.775117533521936 H 0.0 **** 0.06
6351 C 49.53387986334229 99.05303948666607 80.9295317182062 C 0.0 **** -0.24
6352 H 48.445670593208376 99.06756364994673 80.8685191716806 H 0.0 **** 0.06
6353 H 49.83750711707415 98.79255577921549 81.94396243019355 H 0.0 **** 0.06
6354 H 49.92495942743324 100.03782853233317 80.6732911671026 H 0.0 **** 0.06
6355 H 49.925769999034685 98.31330677603843 80.23158936656344 H 0.0 **** 0.06
6356 C 74.26250600015646 142.65327838040616 1.130731616418302 C 0.0 **** -0.24
6357 H 73.73610454786566 143.5584496467646 1.434152781281341 H 0.0 **** 0.06
6358 H 74.43002080832983 142.67429004458634 0.053949749325909124 H 0.0 **** 0.06
6359 H 73.66222712697584 141.78032295947787 1.3892969924564227 H 0.0 **** 0.06
6360 H 75.22129676066959 142.60122732427442 1.6476425457521486 H 0.0 **** 0.06
6361 C 26.988368216963686 5.481837827043449 22.55394169868103 C 0.0 **** -0.24
6362 H 26.28865983772812 5.603346636848244 21.726619681056377 H 0.0 **** 0.06
6363 H 27.978811735271613 5.254474376742905 22.15950995384611 H 0.0 **** 0.06
6364 H 26.655358648636167 4.665046443406794 23.193831011932105 H 0.0 **** 0.06
6365 H 27.029804558512573 6.4039487556779875 23.132975657659586 H 0.0 **** 0.06
6366 C 138.57332712189316 2.614532889303007 55.37522062460843 C 0.0 **** -0.24
6367 H 139.1823035453316 1.7199475374035273 55.51030843407656 H 0.0 **** 0.06
6368 H 138.4871360427439 3.140665617295724 56.3259631497813 H 0.0 **** 0.06
6369 H 137.58148291418684 2.329645335741702 55.02456119427168 H 0.0 **** 0.06
6370 H 139.04531172306 3.2672565040361974 54.639804155338965 H 0.0 **** 0.06
6371 C 45.52781737123459 17.55673101237587 60.334800533967524 C 0.0 **** -0.24
6372 H 46.53665984112476 17.289041103990392 60.64759254716088 H 0.0 **** 0.06
6373 H 45.00903150022313 16.666185182320213 59.979093816580445 H 0.0 **** 0.06
6374 H 45.57977789000506 18.292851500620195 59.53188604436869 H 0.0 **** 0.06
6375 H 44.98555975370189 17.979771612124672 61.18033658667699 H 0.0 **** 0.06
6376 C 54.06579351737429 45.322518698109064 32.4794864277315 C 0.0 **** -0.24
6377 H 54.42867470745199 45.110596355870314 33.48569719130745 H 0.0 **** 0.06
6378 H 52.97697806050223 45.37176086509767 32.49106249016377 H 0.0 **** 0.06
6379 H 54.38744178936847 44.53144963104225 31.80354195416497 H 0.0 **** 0.06
6380 H 54.46955926105217 46.27705991419168 32.14097613779066 H 0.0 **** 0.06
6381 C 141.52371883900162 100.98771948614265 142.96540368670776 C 0.0 **** -0.24
6382 H 141.04709779027377 100.57390665079069 143.8540274585145 H 0.0 **** 0.06
6383 H 142.581903708333 101.1564033340905 143.1663700017599 H 0.0 **** 0.06
6384 H 141.0488622461584 101.93389033228863 142.70534051389433 H 0.0 **** 0.06
6385 H 141.41768413062258 100.28757860593794 142.13673470198418 H 0.0 **** 0.06
6386 C 141.43128590152267 125.14332715378328 111.03801526756635 C 0.0 **** -0.24
6387 H 141.30040406438465 126.19038606686897 111.3095855803875 H 0.0 **** 0.06
6388 H 141.2949764305636 124.51923700826102 111.921758531824 H 0.0 **** 0.06
6389 H 142.43485786519503 124.99459975971295 110.6391514010019 H 0.0 **** 0.06
6390 H 140.6957697752255 124.86944387231384 110.28121284908227 H 0.0 **** 0.06
6391 C 136.30165795269886 68.15943327758703 62.77642585080906 C 0.0 **** -0.24
6392 H 135.26735382994593 68.36091993287675 62.498967793426004 H 0.0 **** 0.06
6393 H 136.81923195093327 69.10258877149437 62.95874392184139 H 0.0 **** 0.06
6394 H 136.79749563772907 67.62350173961426 61.96698204129662 H 0.0 **** 0.06
6395 H 136.32371963431228 67.55199875800187 63.681077425928564 H 0.0 **** 0.06
6396 C 61.052053097488226 131.67095808877013 40.86744651873859 C 0.0 **** -0.24
6397 H 61.97454199483707 132.24600740549982 40.790204085079985 H 0.0 **** 0.06
6398 H 60.48918964398797 132.0027031160276 41.739671172190185 H 0.0 **** 0.06
6399 H 61.29152504665393 130.6125738002005 40.97081374927877 H 0.0 **** 0.06
6400 H 60.45330053444485 131.82161095562822 39.96915203486486 H 0.0 **** 0.06
6401 C 126.74935862301612 77.51143369512768 53.87958503891896 C 0.0 **** -0.24
6402 H 125.79593825167524 77.12614303887358 53.51747093637513 H 0.0 **** 0.06
6403 H 127.56537817986586 76.9746700106377 53.39508761460419 H 0.0 **** 0.06
6404 H 126.81164142205517 77.37237424956017 54.959131352569074 H 0.0 **** 0.06
6405 H 126.8233667517842 78.57355775602888 53.645785597371045 H 0.0 **** 0.06
6406 C 39.59387841589492 98.07257887290945 52.01554497470708 C 0.0 **** -0.24
6407 H 39.61613920533892 98.54961339859756 52.99547835243618 H 0.0 **** 0.06
6408 H 40.26269855244564 97.21146086100316 52.01669537399982 H 0.0 **** 0.06
6409 H 39.9179394909146 98.78448125255676 51.257583075678994 H 0.0 **** 0.06
6410 H 38.578460904968736 97.74310952767009 51.79510647889471 H 0.0 **** 0.06
6411 C 112.04820638742004 107.80794620602512 124.70391195645077 C 0.0 **** -0.24
6412 H 112.60118155224379 107.94318830255861 123.77407812004641 H 0.0 **** 0.06
6413 H 112.13673845032937 108.70738057798138 125.31338614664755 H 0.0 **** 0.06
6414 H 112.45849054257943 106.95742363120098 125.24948982792083 H 0.0 **** 0.06
6415 H 110.99859115578104 107.62183710792624 124.47802894965722 H 0.0 **** 0.06
6416 C 36.27127776160168 24.181688664009755 103.04722685093145 C 0.0 **** -0.24
6417 H 36.32492276239023 24.67987296994977 104.01537793409977 H 0.0 **** 0.06
6418 H 37.182864412129646 23.606379662260736 102.88413409225558 H 0.0 **** 0.06
6419 H 36.16619673955191 24.92771163842059 102.25965743418038 H 0.0 **** 0.06
6420 H 35.41038093939301 23.512593165405008 103.0309230118495 H 0.0 **** 0.06
6421 C 7.850283552300624 18.976513049121024 14.120764777937467 C 0.0 **** -0.24
6422 H 8.315923068913804 19.617680102115486 13.372137662272138 H 0.0 **** 0.06
6423 H 8.189169475983505 19.271717055555854 15.113742530458097 H 0.0 **** 0.06
6424 H 8.130304001587774 17.939032103810618 13.935363110282367 H 0.0 **** 0.06
6425 H 6.766538796590993 19.07598492834049 14.060994046349464 H 0.0 **** 0.06
6426 C 46.22489478110853 46.52370776368711 121.67276607999918 C 0.0 **** -0.24
6427 H 45.8887440604604 47.0895491259908 122.54131608900059 H 0.0 **** 0.06
6428 H 46.73291763120925 47.19326735542279 120.97711406169276 H 0.0 **** 0.06
6429 H 45.36450152438114 46.0718820372913 121.17959082394333 H 0.0 **** 0.06
6430 H 46.91328140321508 45.741521052399065 121.99281092751716 H 0.0 **** 0.06
6431 C 135.3341902504232 4.992622306789372 19.690017207110287 C 0.0 **** -0.24
6432 H 134.83711833428958 4.375345209572345 18.94270447089329 H 0.0 **** 0.06
6433 H 136.19858105121546 4.457887504057794 20.085533570531737 H 0.0 **** 0.06
6434 H 134.63956820672803 5.211701398161665 20.500622808871725 H 0.0 **** 0.06
6435 H 135.66383603138618 5.925141789121824 19.231792397529773 H 0.0 **** 0.06
6436 C 12.471888744325867 62.47837599871231 24.850100986310935 C 0.0 **** -0.24
6437 H 12.48506248734023 61.96091175546056 23.891798306271284 H 0.0 **** 0.06
6438 H 13.360615163175225 63.10383083592829 24.9375625241793 H 0.0 **** 0.06
6439 H 12.461946192034787 61.746525322714135 25.658267220574743 H 0.0 **** 0.06
6440 H 11.5810358573016 63.10217165912269 24.914108398999446 H 0.0 **** 0.06
6441 C 73.83105940083269 20.149076313267045 143.3463159292117 C 0.0 **** -0.24
6442 H 72.77740487641736 19.998467901443377 143.11046181504514 H 0.0 **** 0.06
6443 H 73.91867733469252 20.62204088367588 144.3254837382819 H 0.0 **** 0.06
6444 H 74.28472012790286 20.790081350943495 142.5901106647422 H 0.0 **** 0.06
6445 H 74.34064945101801 19.185860323245265 143.36069699407062 H 0.0 **** 0.06
6446 C 99.05777261636285 76.64647245600874 66.30575474403338 C 0.0 **** -0.24
6447 H 99.96857730101112 76.06742713623706 66.15512202408058 H 0.0 **** 0.06
6448 H 98.79721883334594 77.1612666621338 65.38056742160754 H 0.0 **** 0.06
6449 H 99.22041712117624 77.38007675241606 67.0966355732005 H 0.0 **** 0.06
6450 H 98.24558260132181 75.97933836702941 66.59145442279288 H 0.0 **** 0.06
6451 C 6.850691150156706 44.49310815019517 29.321562125109523 C 0.0 **** -0.24
6452 H 6.541107569270423 44.53465096076248 28.277504139696845 H 0.0 **** 0.06
6453 H 7.237266068438714 43.4993453175132 29.54632007482536 H 0.0 **** 0.06
6454 H 5.995501808066251 44.705019517196035 29.962736536407306 H 0.0 **** 0.06
6455 H 7.630594123835294 45.23496854980719 29.49885984138072 H 0.0 **** 0.06
6456 C 12.091659871735601 67.31932684881716 110.02085319511055 C 0.0 **** -0.24
6457 H 11.060474752014272 67.60176439430883 110.23170896359066 H 0.0 **** 0.06
6458 H 12.22345899631415 66.25478906140746 110.21532478869717 H 0.0 **** 0.06
6459 H 12.762531347342644 67.89313831242393 110.66062955247462 H 0.0 **** 0.06
6460 H 12.318937781867135 67.52970638828414 108.97543360060509 H 0.0 **** 0.06
6461 C 144.24151723408173 145.29414062969275 54.27055414237137 C 0.0 **** -0.24
6462 H 144.51817657333143 144.4680676914076 53.61538316414426 H 0.0 **** 0.06
6463 H 143.22414820832643 145.61225441972348 54.04351942166319 H 0.0 **** 0.06
6464 H 144.92567881535595 146.12749495434036 54.11408896980947 H 0.0 **** 0.06
6465 H 144.2976772005003 144.96782397602996 55.30924149372011 H 0.0 **** 0.06
6466 C 141.9309533415018 61.97098975531216 9.785860487629833 C 0.0 **** -0.24
6467 H 141.34518524088085 62.346915366215384 8.947192167632267 H 0.0 **** 0.06
6468 H 142.9335594408375 61.71419740365644 9.441895876080196 H 0.0 **** 0.06
6469 H 141.44903849225747 61.08466737582495 10.196514285572789 H 0.0 **** 0.06
6470 H 141.9966162996541 62.73962063589451 10.55594804330525 H 0.0 **** 0.06
6471 C 88.65435949691722 23.00949646179427 7.374973169881429 C 0.0 **** -0.24
6472 H 88.95560915972854 23.826641521841907 8.031140472150668 H 0.0 **** 0.06
6473 H 89.52203094127944 22.650070470370707 6.820820517210819 H 0.0 **** 0.06
6474 H 87.898467502815 23.365917758670832 6.675845135178889 H 0.0 **** 0.06
6475 H 88.24247918034227 22.196957080434373 7.973541676451845 H 0.0 **** 0.06
6476 C 25.238681094548866 86.55875112913938 59.44523726090043 C 0.0 **** -0.24
6477 H 24.54537993367532 86.64962673237724 60.28155360792718 H 0.0 **** 0.06
6478 H 25.414211420357702 85.50436416104586 59.231494124900735 H 0.0 **** 0.06
6479 H 26.182268934171077 87.04020503912787 59.70331292146611 H 0.0 **** 0.06
6480 H 24.812579758625958 87.04230968176577 58.565404472783 H 0.0 **** 0.06
6481 C 117.92708059067196 0.10511217160092201 66.75220165132174 C 0.0 **** -0.24
6482 H 118.165088873828 -0.9261639584191812 67.01403466080461 H 0.0 **** 0.06
6483 H 117.04622610647014 0.42627533537717 67.3078737525363 H 0.0 **** 0.06
6484 H 117.72805206821094 0.17160010987754504 65.68305673405354 H 0.0 **** 0.06
6485 H 118.7712002520641 0.7477041110157643 67.00554245027072 H 0.0 **** 0.06
6486 C 84.99543308808137 37.683452219083335 126.73572952395813 C 0.0 **** -0.24
6487 H 84.25848308899702 37.222227021956144 126.07831876278937 H 0.0 **** 0.06
6488 H 85.68003383966635 38.2920818338055 126.14279039365314 H 0.0 **** 0.06
6489 H 85.55592852818472 36.90733020148559 127.25592980204782 H 0.0 **** 0.06
6490 H 84.48693995524667 38.31553096651231 127.46427198706803 H 0.0 **** 0.06
6491 C 85.87078062150258 28.764191549713814 102.41101258322375 C 0.0 **** -0.24
6492 H 85.34618641077085 28.62140310740736 103.35561422446887 H 0.0 **** 0.06
6493 H 86.81235978302584 29.283973811800962 102.59402370942429 H 0.0 **** 0.06
6494 H 85.25279151556538 29.358649939898243 101.73791928037154 H 0.0 **** 0.06
6495 H 86.07319359413262 27.79359807478596 101.95800243166634 H 0.0 **** 0.06
6496 C 17.707831710091284 26.72075789059899 145.00796000679009 C 0.0 **** -0.24
6497 H 18.446279900208708 26.18041244440709 144.4170413202138 H 0.0 **** 0.06
6498 H 17.478063153712412 27.669920663434382 144.52382124856308 H 0.0 **** 0.06
6499 H 18.106920791411824 26.908919907126155 146.00452252090088 H 0.0 **** 0.06
6500 H 16.79968101962703 26.123922630316677 145.08780897672696 H 0.0 **** 0.06
6501 C 55.24177416262296 96.14531988425261 110.22798356041011 C 0.0 **** -0.24
6502 H 55.57388480190693 97.06915518341799 110.7009367625219 H 0.0 **** 0.06
6503 H 56.03599669230431 95.75761486754854 109.58966991548454 H 0.0 **** 0.06
6504 H 54.35623198767979 96.34512308024804 109.62409394658988 H 0.0 **** 0.06
6505 H 54.999555966957246 95.41081852401891 110.99585072335447 H 0.0 **** 0.06
6506 C 19.699318945768198 135.59107513941854 81.29291054768007 C 0.0 **** -0.24
6507 H 20.1697888310149 135.8913690460247 82.22955700430978 H 0.0 **** 0.06
6508 H 19.36636813199692 136.47915592683438 80.75410516202572 H 0.0 **** 0.06
6509 H 18.8433499312319 134.95159985362136 81.5047907771773 H 0.0 **** 0.06
6510 H 20.41979239897995 135.0451991519801 80.68406385853007 H 0.0 **** 0.06
6511 C 14.146160080343009 93.68851745552568 33.36741015536768 C 0.0 **** -0.24
6512 H 13.667936469379242 93.84259270800612 32.39943290959377 H 0.0 **** 0.06
6513 H 13.434966954435083 93.91056930179698 34.162735995331445 H 0.0 **** 0.06
6514 H 15.008857177975756 94.3483179273982 33.455125122275035 H 0.0 **** 0.06
6515 H 14.471429336803055 92.65143397586591 33.44959691345298 H 0.0 **** 0.06
6516 C 8.357232285169943 69.86174275530209 51.513778002556705 C 0.0 **** -0.24
6517 H 7.471090213010541 69.30619535970109 51.208101406478704 H 0.0 **** 0.06
6518 H 9.250381176906814 69.33360704896262 51.1760447601456 H 0.0 **** 0.06
6519 H 8.375343458964267 69.94876104020886 52.599367992282964 H 0.0 **** 0.06
6520 H 8.333601645105261 70.85691779518302 51.069460390837264 H 0.0 **** 0.06
6521 C 33.220407870843815 132.0759244722703 108.01178624933642 C 0.0 **** -0.24
6522 H 32.15891968358346 132.3202983481873 107.98670458414865 H 0.0 **** 0.06
6523 H 33.41643407830196 131.24343005274557 107.33590780475681 H 0.0 **** 0.06
6524 H 33.504158515334154 131.79475347728302 109.02605167250927 H 0.0 **** 0.06
6525 H 33.80061572757228 132.94332007714146 107.69886205212772 H 0.0 **** 0.06
6526 C 139.52502753964978 7.023432449555003 104.8220127633333 C 0.0 **** -0.24
6527 H 138.81560290713745 6.20838106293084 104.67485001514561 H 0.0 **** 0.06
6528 H 140.54080962394613 6.646147418718527 104.70055620984746 H 0.0 **** 0.06
6529 H 139.40572559583137 7.430709335524568 105.82598561123238 H 0.0 **** 0.06
6530 H 139.33653403032284 7.805363600893543 104.0862772303407 H 0.0 **** 0.06
6531 C 19.497115923642227 62.9984221841938 7.114634042383727 C 0.0 **** -0.24
6532 H 20.47227270942119 62.70273608581351 7.501985154272859 H 0.0 **** 0.06
6533 H 18.718321971814106 62.672229325317886 7.8051296367820555 H 0.0 **** 0.06
6534 H 19.337870642926703 62.53382082463432 6.141309618418802 H 0.0 **** 0.06
6535 H 19.461614430580426 64.08221092540967 7.011181456657823 H 0.0 **** 0.06
6536 C 68.86343358632885 47.45874610226382 79.61074811584797 C 0.0 **** -0.24
6537 H 68.25439361899535 46.59681790864727 79.88793959564735 H 0.0 **** 0.06
6538 H 68.54669173136992 48.32742595152433 80.18772801288968 H 0.0 **** 0.06
6539 H 68.74028334073009 47.662654313566435 78.54696554086739 H 0.0 **** 0.06
6540 H 69.91092015093477 47.24468905812945 79.82096785236205 H 0.0 **** 0.06
6541 C 10.060923912673019 105.28999018906948 125.33756177374005 C 0.0 **** -0.24
6542 H 10.030732787280726 106.36945829373606 125.18729856694748 H 0.0 **** 0.06
6543 H 11.038642403091899 105.00525851217965 125.72602066926285 H 0.0 **** 0.06
6544 H 9.886766869556737 104.78623099802446 124.38616650960036 H 0.0 **** 0.06
6545 H 9.28810678857991 105.00090718694696 126.04970965250564 H 0.0 **** 0.06
6546 C 106.11173477292635 110.67890689313597 47.65240817264706 C 0.0 **** -0.24
6547 H 105.34361790593039 111.44378701795736 47.76820879921635 H 0.0 **** 0.06
6548 H 105.74784947109936 109.7350122545503 48.058343261204186 H 0.0 **** 0.06
6549 H 107.01078525376732 110.98368033628046 48.188764687138956 H 0.0 **** 0.06
6550 H 106.3438081041391 110.55520157781834 46.5942092796341 H 0.0 **** 0.06
6551 C 85.08999013910912 142.06951514293218 75.6770343882342 C 0.0 **** -0.24
6552 H 86.01300740311692 142.14392695790576 75.10323751730522 H 0.0 **** 0.06
6553 H 84.2566856700545 142.43421176123897 75.07544982447112 H 0.0 **** 0.06
6554 H 85.17563501370354 142.6718544420639 76.58135635178806 H 0.0 **** 0.06
6555 H 84.9128672006316 141.02881090377707 75.94924766255846 H 0.0 **** 0.06
6556 C 68.52846302128796 39.391529229444224 11.545389534361618 C 0.0 **** -0.24
6557 H 67.62846058977823 38.892319319001864 11.906652673826017 H 0.0 **** 0.06
6558 H 69.18618048306035 38.65924552210623 11.07597473269189 H 0.0 **** 0.06
6559 H 69.04454542766462 39.86090217682726 12.382925135512806 H 0.0 **** 0.06
6560 H 68.25205706636609 40.152917247783115 10.815193682373462 H 0.0 **** 0.06
6561 C 101.24390987856765 112.4661350078196 127.52051252217804 C 0.0 **** -0.24
6562 H 100.47305721823527 112.30466856367907 126.76630585021014 H 0.0 **** 0.06
6563 H 102.09328966360675 112.97633265862312 127.06763375311974 H 0.0 **** 0.06
6564 H 101.56770358478958 111.50435457500349 127.91810015300905 H 0.0 **** 0.06
6565 H 100.83978634206336 113.07606939978346 128.3279981685688 H 0.0 **** 0.06
6566 C 17.736507105545826 38.11340044784591 100.62962428362965 C 0.0 **** -0.24
6567 H 17.175509979496496 38.92106470423897 100.15818539895683 H 0.0 **** 0.06
6568 H 18.566186339690148 38.53195813666172 101.19896575300933 H 0.0 **** 0.06
6569 H 18.1244565494045 37.444561249969695 99.86162282905256 H 0.0 **** 0.06
6570 H 17.079612332193108 37.55747194961474 101.2988198234981 H 0.0 **** 0.06
6571 C 60.97441680582969 101.5308051756653 82.45329866280149 C 0.0 **** -0.24
6572 H 60.9518504868436 102.39472860989386 81.78831445243844 H 0.0 **** 0.06
6573 H 61.56740368863896 100.7374636685754 81.99768399173028 H 0.0 **** 0.06
6574 H 59.958436252506345 101.17584041838634 82.62213104251012 H 0.0 **** 0.06
6575 H 61.4221995442023 101.81852911559723 83.40411800276473 H 0.0 **** 0.06
6576 C 104.18881233167839 111.9776710502217 45.10675130501781 C 0.0 **** -0.24
6577 H 103.27222261927841 112.24010784648827 45.63431749994626 H 0.0 **** 0.06
6578 H 104.26438101810241 110.8931886596417 45.029574883670705 H 0.0 **** 0.06
6579 H 105.0467502840293 112.36411351047751 45.656731833101986 H 0.0 **** 0.06
6580 H 104.17040965071789 112.41400774835252 44.10818507628693 H 0.0 **** 0.06
6581 C 46.63020142415205 113.72188830004373 43.266512324807124 C 0.0 **** -0.24
6582 H 46.34720368592494 113.84222661648178 42.22071269135782 H 0.0 **** 0.06
6583 H 47.60459926139919 114.18133378843348 43.434371257480464 H 0.0 **** 0.06
6584 H 46.67995606565795 112.66078161707091 43.50941549446482 H 0.0 **** 0.06
6585 H 45.88643614277417 114.20465512533124 43.901866851585936 H 0.0 **** 0.06
6586 C 13.926978578373905 99.26373833894523 39.85030014487322 C 0.0 **** -0.24
6587 H 14.573397935148819 98.46092476864425 40.20412815301066 H 0.0 **** 0.06
6588 H 14.138835669008131 99.46377655455757 38.798971807457086 H 0.0 **** 0.06
6589 H 14.111153485664943 100.16432335428509 40.43602629911081 H 0.0 **** 0.06
6590 H 12.883820707425002 98.96579233145614 39.96085680946505 H 0.0 **** 0.06
6591 C 47.24620468098985 58.26952993447834 79.61216246226357 C 0.0 **** -0.24
6592 H 47.7533001864781 59.22695864870376 79.73531415869547 H 0.0 **** 0.06
6593 H 47.82499589127512 57.4865768457466 80.10302102589816 H 0.0 **** 0.06
6594 H 47.154555266801125 58.04113177645348 78.55057471841852 H 0.0 **** 0.06
6595 H 46.2541249024447 58.32288819716253 80.05990399568049 H 0.0 **** 0.06
6596 C 26.34317384890339 97.14916889367743 125.81708422993191 C 0.0 **** -0.24
6597 H 27.143749383307522 96.61632447756199 126.32986734660744 H 0.0 **** 0.06
6598 H 26.6920756128425 98.14163969132255 125.53176480732148 H 0.0 **** 0.06
6599 H 25.48540336905495 97.24229933046004 126.48419252857045 H 0.0 **** 0.06
6600 H 26.051002865590164 96.59471305766488 124.92494087532668 H 0.0 **** 0.06
6601 C 20.51862863456779 114.54415285758978 125.12682596805486 C 0.0 **** -0.24
6602 H 21.194048141349242 115.34762582583028 125.42001627984266 H 0.0 **** 0.06
6603 H 21.042916957493105 113.59011082096902 125.18532776684984 H 0.0 **** 0.06
6604 H 20.178687517671648 114.71072801818241 124.10428516982365 H 0.0 **** 0.06
6605 H 19.660118531148782 114.5286644975979 125.79728353737282 H 0.0 **** 0.06
6606 C 97.67042901263923 9.394849093281806 30.31935081954221 C 0.0 **** -0.24
6607 H 98.62566204733785 8.88678718655487 30.450136244129503 H 0.0 **** 0.06
6608 H 96.93100612547131 8.68853467788091 29.94204109001383 H 0.0 **** 0.06
6609 H 97.78933974999973 10.211537430605546 29.607119603338724 H 0.0 **** 0.06
6610 H 97.33723389921128 9.79400735945947 31.277391839088786 H 0.0 **** 0.06
6611 C 21.41980026198847 98.86607937305598 136.3108181195953 C 0.0 **** -0.24
6612 H 20.47113222932694 98.9788331761178 135.78552157213284 H 0.0 **** 0.06
6613 H 21.9945595772555 98.06031862240891 135.85335634831597 H 0.0 **** 0.06
6614 H 21.229709487876846 98.62831743756524 137.3568991899503 H 0.0 **** 0.06
6615 H 21.983583062906746 99.79637858356281 136.24617910804142 H 0.0 **** 0.06
6616 C 17.515215520030637 10.702138361539511 16.84891431804644 C 0.0 **** -0.24
6617 H 17.619022916926838 10.259837367354073 17.839678542124688 H 0.0 **** 0.06
6618 H 16.56078129314423 10.402995563447895 16.415710221710356 H 0.0 **** 0.06
6619 H 18.32884093954064 10.357801036515461 16.21049566145834 H 0.0 **** 0.06
6620 H 17.55208254911406 11.788681809360483 16.931322338700824 H 0.0 **** 0.06
6621 C 145.14268193858442 134.87960253197704 116.3779247797425 C 0.0 **** -0.24
6622 H 145.59501744052122 134.8330788545224 115.3865176456224 H 0.0 **** 0.06
6623 H 144.08571468624 134.62408851369852 116.3067581763384 H 0.0 **** 0.06
6624 H 145.2472562167023 135.88894905358165 116.7763638995084 H 0.0 **** 0.06
6625 H 145.6445966982342 134.1739454772648 117.03926248004643 H 0.0 **** 0.06
6626 C 120.54469578309723 85.59755428120215 25.377089876275477 C 0.0 **** -0.24
6627 H 121.6061201720206 85.75002462167528 25.573846017847757 H 0.0 **** 0.06
6628 H 120.36991585841709 85.6065314850928 24.300659043443034 H 0.0 **** 0.06
6629 H 119.96992357909276 86.39612812440525 25.845609464627557 H 0.0 **** 0.06
6630 H 120.23371247752412 84.63731440770125 25.787842403499724 H 0.0 **** 0.06
6631 C 60.60078193947706 75.00843221918716 108.4400507570766 C 0.0 **** -0.24
6632 H 60.059580610093406 75.44271698561711 109.27966179018507 H 0.0 **** 0.06
6633 H 60.23095948763134 73.99987113727445 108.25132646300959 H 0.0 **** 0.06
6634 H 61.66424474812905 74.96854152441249 108.67527293615082 H 0.0 **** 0.06
6635 H 60.44783992342482 75.62288847999885 107.55312735738515 H 0.0 **** 0.06
6636 C 47.70489505893015 28.36815190086203 128.9543795551651 C 0.0 **** -0.24
6637 H 47.466814846726805 28.628416912859215 127.92373860475054 H 0.0 **** 0.06
6638 H 47.88710721131865 29.278829607331758 129.52605848381907 H 0.0 **** 0.06
6639 H 48.5955341102858 27.741056388644814 128.9750227919 H 0.0 **** 0.06
6640 H 46.868478552409584 27.82439701964973 129.3938314470995 H 0.0 **** 0.06
6641 C 83.39677442840679 68.98599850446884 10.81344525547243 C 0.0 **** -0.24
6642 H 83.24236833149305 68.22118738727686 11.575336756322628 H 0.0 **** 0.06
6643 H 84.3094194421111 69.539709075263 11.034236075650682 H 0.0 **** 0.06
6644 H 82.54757868662281 69.6694424528588 10.807456510296731 H 0.0 **** 0.06
6645 H 83.48686200488171 68.5108017062981 9.836430851941685 H 0.0 **** 0.06
6646 C 104.1578697154875 75.96016907828329 90.8257608330285 C 0.0 **** -0.24
6647 H 104.27144124733474 74.8955719987685 90.62294951407856 H 0.0 **** 0.06
6648 H 105.11712389078434 76.45998435315067 90.69253546581218 H 0.0 **** 0.06
6649 H 103.81529596925805 76.09964095862695 91.85209060916118 H 0.0 **** 0.06
6650 H 103.42693881520432 76.38460837502672 90.13825726669941 H 0.0 **** 0.06
6651 C 144.32961172613608 45.23163635632086 67.40310431964508 C 0.0 **** -0.24
6652 H 143.74921935662965 44.5208074642792 66.81511123305052 H 0.0 **** 0.06
6653 H 145.3019313999539 44.79820741286994 67.64061593648091 H 0.0 **** 0.06
6654 H 143.7973132459084 45.45838213774846 68.3270808300698 H 0.0 **** 0.06
6655 H 144.4703296081199 46.148706910957586 66.83043687600605 H 0.0 **** 0.06
6656 C 43.83350919724198 131.509139286337 94.00296346165767 C 0.0 **** -0.24
6657 H 44.92221315962212 131.55625943037055 94.0289687270838 H 0.0 **** 0.06
6658 H 43.464094934505624 132.11187684366573 93.1729939091901 H 0.0 **** 0.06
6659 H 43.43131662203926 131.8942068741559 94.93950227008409 H 0.0 **** 0.06
6660 H 43.51859809414698 130.4737435123853 93.87040209958982 H 0.0 **** 0.06
6661 C 29.823867054652595 4.067718606210246 103.8889253621458 C 0.0 **** -0.24
6662 H 30.011287317433215 3.002034820883029 104.01872363529058 H 0.0 **** 0.06
6663 H 29.270860691162085 4.2279944313781925 102.96329448175808 H 0.0 **** 0.06
6664 H 30.773985509575994 4.600821584364496 103.84170165354286 H 0.0 **** 0.06
6665 H 29.24018599869413 4.439593794082864 104.73093733338924 H 0.0 **** 0.06
6666 C 10.580615736336142 95.21290786923296 143.8136065682737 C 0.0 **** -0.24
6667 H 10.268494522786284 94.70978273483016 144.7279627778905 H 0.0 **** 0.06
6668 H 10.247707493561848 96.25044007871267 143.83840383553908 H 0.0 **** 0.06
6669 H 10.139535342082013 94.70897199390663 142.95331206174862 H 0.0 **** 0.06
6670 H 11.66755770985992 95.1812431181811 143.73568735200158 H 0.0 **** 0.06
6671 C 63.452548068284045 27.854013901620263 113.85675864990377 C 0.0 **** -0.24
6672 H 64.28666105945615 27.52603055139206 114.47714187042932 H 0.0 **** 0.06
6673 H 63.59550099900264 27.496374866835893 112.83742767071622 H 0.0 **** 0.06
6674 H 63.407472317529766 28.943152567756528 113.85654485690195 H 0.0 **** 0.06
6675 H 62.522369223846056 27.4508997771596 114.2575194600527 H 0.0 **** 0.06
6676 C 18.656867198512316 40.49794645960901 135.00612485471873 C 0.0 **** -0.24
6677 H 18.16538926850783 41.211930696280575 135.66657078345014 H 0.0 **** 0.06
6678 H 18.38391583397908 40.71107194414259 133.97268353119946 H 0.0 **** 0.06
6679 H 18.34097554371894 39.487656343398044 135.2654166259411 H 0.0 **** 0.06
6680 H 19.737336950336 40.58084620644095 135.12153118949487 H 0.0 **** 0.06
6681 C 39.91380853359538 74.25200394593396 129.00641059872896 C 0.0 **** -0.24
6682 H 39.80915720449065 75.03908022406094 129.75287219064856 H 0.0 **** 0.06
6683 H 40.927467209630414 73.85122880051097 129.0394759350014 H 0.0 **** 0.06
6684 H 39.717105035999076 74.66364750995051 128.0159585545111 H 0.0 **** 0.06
6685 H 39.200269008965215 73.45537653267812 129.2160173486272 H 0.0 **** 0.06
6686 C 63.828060616462125 131.11488818402168 73.94520305167819 C 0.0 **** -0.24
6687 H 64.52178709337316 130.51041410251028 74.52924803386318 H 0.0 **** 0.06
6688 H 63.02425939855908 131.4697310175541 74.59073933206267 H 0.0 **** 0.06
6689 H 63.40874392631244 130.5109038375288 73.1409429626365 H 0.0 **** 0.06
6690 H 64.35763714470646 131.96818990943981 73.52081315091479 H 0.0 **** 0.06
6691 C 117.16167769338313 142.5428628006998 127.79387739663895 C 0.0 **** -0.24
6692 H 117.3020719802272 143.47971990781141 128.33219891967718 H 0.0 **** 0.06
6693 H 116.09605742700609 142.33435760164875 127.6972961507961 H 0.0 **** 0.06
6694 H 117.64217624877301 141.73247404648535 128.34383483802122 H 0.0 **** 0.06
6695 H 117.6082949240639 142.62259817267065 126.80254332758088 H 0.0 **** 0.06
6696 C 16.65441030788506 124.37161617323156 22.695521517941017 C 0.0 **** -0.24
6697 H 17.498374512937716 124.81045462397267 22.162168741300775 H 0.0 **** 0.06
6698 H 15.730323748700982 124.84424587328978 22.362101196351716 H 0.0 **** 0.06
6699 H 16.779192077578244 124.53035676095149 23.766355213647614 H 0.0 **** 0.06
6700 H 16.61045569243032 123.30212098886484 22.488299500247876 H 0.0 **** 0.06
6701 C 79.6906356383682 142.454365889341 68.72942154024591 C 0.0 **** -0.24
6702 H 79.94159948826203 143.5144207592108 68.70101926427381 H 0.0 **** 0.06
6703 H 78.7432070417261 142.29144576898148 68.21564923065921 H 0.0 **** 0.06
6704 H 79.60210037204061 142.12985966159454 69.7663005679625 H 0.0 **** 0.06
6705 H 80.47580194876517 141.88202795932708 68.23565940659276 H 0.0 **** 0.06
6706 C 136.7677346944743 83.63199319876287 80.57361125679378 C 0.0 **** -0.24
6707 H 135.85328830052467 83.29939827910101 81.06598952534719 H 0.0 **** 0.06
6708 H 136.8032047879524 84.72154166206889 80.57222311132335 H 0.0 **** 0.06
6709 H 136.77981066614672 83.26564019482333 79.54658468005286 H 0.0 **** 0.06
6710 H 137.6315648774454 83.24015464083072 81.10985263962169 H 0.0 **** 0.06
6711 C 66.7567468010795 82.14085293699728 29.393806232100047 C 0.0 **** -0.24
6712 H 67.37291798085282 82.75552553944723 30.05154223761957 H 0.0 **** 0.06
6713 H 66.71383695236295 81.12361726147981 29.782906755974125 H 0.0 **** 0.06
6714 H 67.19257809713062 82.13020636639035 28.394843458326818 H 0.0 **** 0.06
6715 H 65.75080399602543 82.55594044560505 29.34667601926205 H 0.0 **** 0.06
6716 C 48.853835168697856 38.38978226937468 127.1668413078896 C 0.0 **** -0.24
6717 H 49.80980687333067 38.79941964890452 126.84028928568827 H 0.0 **** 0.06
6718 H 48.26607947943518 38.101441133101275 126.29428551251371 H 0.0 **** 0.06
6719 H 48.3124987033832 39.14332746206799 127.73756567636414 H 0.0 **** 0.06
6720 H 49.02815326138807 37.5149236605572 127.79247416613148 H 0.0 **** 0.06
6721 C 64.5680055688449 133.96726778318856 29.80896378920002 C 0.0 **** -0.24
6722 H 63.76324080954777 134.24265065320054 30.490784047637078 H 0.0 **** 0.06
6723 H 64.14593063648962 133.4985743929098 28.919669024553826 H 0.0 **** 0.06
6724 H 65.23919118926365 133.2664716747775 30.305027853175602 H 0.0 **** 0.06
6725 H 65.12209444075621 134.86058098551968 29.521760176643127 H 0.0 **** 0.06
6726 C 122.83383581253915 62.42916281700984 49.09855300433631 C 0.0 **** -0.24
6727 H 122.36439465727595 63.264369876155996 49.61842805805662 H 0.0 **** 0.06
6728 H 123.91737783505229 62.551622370643 49.118105449439284 H 0.0 **** 0.06
6729 H 122.48890499403267 62.40455930735378 48.06485271174515 H 0.0 **** 0.06
6730 H 122.56479334840706 61.49631051556396 49.593794987714915 H 0.0 **** 0.06
6731 C 101.5005849124897 81.14280911014306 143.6758557534992 C 0.0 **** -0.24
6732 H 101.20401497133844 80.33980709356072 143.00090394962095 H 0.0 **** 0.06
6733 H 101.8168269084457 82.00829534263998 143.0942842249953 H 0.0 **** 0.06
6734 H 102.32484517499137 80.80331092536463 144.30228440372386 H 0.0 **** 0.06
6735 H 100.65470648848898 81.41743559563906 144.30718050573753 H 0.0 **** 0.06
6736 C 93.15709022591005 25.205753424788952 141.4436006292848 C 0.0 **** -0.24
6737 H 92.45429744863276 24.373649168717463 141.4158396628539 H 0.0 **** 0.06
6738 H 93.1738353914098 25.69921039435218 140.4715611555132 H 0.0 **** 0.06
6739 H 94.15428903040834 24.83118915382977 141.67801930497762 H 0.0 **** 0.06
6740 H 92.84790679607016 25.91792849328283 142.2087504061567 H 0.0 **** 0.06
6741 C 90.23343637799987 57.06677630102838 4.262863645150674 C 0.0 **** -0.24
6742 H 89.6234844008671 57.41509887008402 5.096671711733052 H 0.0 **** 0.06
6743 H 91.06873256283406 57.75173442309314 4.112319251970632 H 0.0 **** 0.06
6744 H 89.62568231063985 57.02949625047114 3.358495295852947 H 0.0 **** 0.06
6745 H 90.61629250804381 56.07047985709055 4.484812943321629 H 0.0 **** 0.06
6746 C 101.15420873473079 64.85108176828778 45.989631056281894 C 0.0 **** -0.24
6747 H 101.84217347977454 65.54536220495493 46.471855143936864 H 0.0 **** 0.06
6748 H 100.1483230690472 65.27091678718148 45.999351318992126 H 0.0 **** 0.06
6749 H 101.15767713134687 63.90341920772826 46.52741865613871 H 0.0 **** 0.06
6750 H 101.46915580908495 64.68552433857236 44.958922556390576 H 0.0 **** 0.06
6751 C 11.653411781334803 11.538466955235407 125.67390176146452 C 0.0 **** -0.24
6752 H 12.687812152568512 11.737365457243044 125.9557407093762 H 0.0 **** 0.06
6753 H 11.202039779390773 12.451979741489367 125.28567935220546 H 0.0 **** 0.06
6754 H 11.09703535739878 11.20082538724111 126.54811759871484 H 0.0 **** 0.06
6755 H 11.628294247837069 10.766254985076984 124.90574706929883 H 0.0 **** 0.06
6756 C 56.5260995402499 7.0321664946900775 34.37106652166895 C 0.0 **** -0.24
6757 H 57.60803560329782 6.938459406494964 34.27765221276073 H 0.0 **** 0.06
6758 H 56.09393635168749 6.053638334205711 34.57984991179171 H 0.0 **** 0.06
6759 H 56.1138807027869 7.420656050461055 33.43977043874011 H 0.0 **** 0.06
6760 H 56.2898130104698 7.7157795827933455 35.18638039311951 H 0.0 **** 0.06
6761 C 103.48945692821917 25.445907138200596 111.00150718726101 C 0.0 **** -0.24
6762 H 103.39212769969663 26.406998212409178 111.50551891849696 H 0.0 **** 0.06
6763 H 103.64794840120607 24.661281237392302 111.74250085836329 H 0.0 **** 0.06
6764 H 104.33882763638519 25.47820474718975 110.3192519900272 H 0.0 **** 0.06
6765 H 102.57906889249239 25.236274713486807 110.43922896202943 H 0.0 **** 0.06
6766 C 108.8312768300899 132.49200006813282 104.62175854993701 C 0.0 **** -0.24
6767 H 108.32028030150809 131.74603756051005 104.01138123192924 H 0.0 **** 0.06
6768 H 109.14143935941007 133.32546834298216 103.99136522526369 H 0.0 **** 0.06
6769 H 109.70794650613499 132.0419893403582 105.08780846934832 H 0.0 **** 0.06
6770 H 108.153961429677 132.85340879326856 105.39521084728817 H 0.0 **** 0.06
6771 C 46.20884905978289 53.068786711461826 43.03953219831078 C 0.0 **** -0.24
6772 H 45.61356758199173 53.08794114746968 43.95295981381945 H 0.0 **** 0.06
6773 H 47.09257358015887 52.449965897266 43.194566586452126 H 0.0 **** 0.06
6774 H 46.51473741297717 54.08376002214129 42.784635323094804 H 0.0 **** 0.06
6775 H 45.61226094302543 52.654118629094796 42.22667371196184 H 0.0 **** 0.06
6776 C 115.23724326461587 14.73235770112575 122.65835536982384 C 0.0 **** -0.24
6777 H 115.30765514047278 13.714512760089065 122.2737103701268 H 0.0 **** 0.06
6778 H 116.1251310550283 15.29327119238468 122.36503598279243 H 0.0 **** 0.06
6779 H 115.1674710660161 14.704528217879329 123.74607927157778 H 0.0 **** 0.06
6780 H 114.35053940165568 15.214360814239228 122.24885924748078 H 0.0 **** 0.06
6781 C 18.30726613403757 137.9590145940158 117.15784392375299 C 0.0 **** -0.24
6782 H 18.52001903381757 137.88324319497588 116.09130896764562 H 0.0 **** 0.06
6783 H 18.084252440009507 138.99608364745256 117.4105128973081 H 0.0 **** 0.06
6784 H 19.176287518014917 137.62481242361264 117.72559095279824 H 0.0 **** 0.06
6785 H 17.449824669680048 137.33193487381732 117.40215736399053 H 0.0 **** 0.06
6786 C 143.7964472805502 50.10458802009633 10.868314063333344 C 0.0 **** -0.24
6787 H 143.03278783917477 50.85251406927121 11.082023644398447 H 0.0 **** 0.06
6788 H 143.59222112162226 49.20172387815029 11.444507561381101 H 0.0 **** 0.06
6789 H 144.7760823577579 50.49738467466358 11.141055353617645 H 0.0 **** 0.06
6790 H 143.7841715867599 49.86720377564015 9.80444568159399 H 0.0 **** 0.06
6791 C 32.704880657085425 51.643226280238366 14.916065856044554 C 0.0 **** -0.24
6792 H 32.068656109003825 50.86425577377065 14.494473370403341 H 0.0 **** 0.06
6793 H 33.221456355640555 52.16517400768839 14.109526900139599 H 0.0 **** 0.06
6794 H 33.43737359874564 51.19094203193271 15.5847907278756 H 0.0 **** 0.06
6795 H 32.09060222106888 52.350317985519666 15.473463573754714 H 0.0 **** 0.06
6796 C 42.57049264631945 71.80474259877225 134.55314356617697 C 0.0 **** -0.24
6797 H 43.208381784254186 72.67731473184715 134.69143379149585 H 0.0 **** 0.06
6798 H 43.19134353169329 70.91583745082782 134.44048602696276 H 0.0 **** 0.06
6799 H 41.961676163787615 71.93908121484073 133.65945095001814 H 0.0 **** 0.06
6800 H 41.92241516464918 71.68827071527429 135.42071355962068 H 0.0 **** 0.06
6801 C 105.63112389986608 105.33714038992561 112.22155075335837 C 0.0 **** -0.24
6802 H 104.77317144122392 104.6664955860184 112.27873524813776 H 0.0 **** 0.06
6803 H 106.549523570177 104.76173950177507 112.3371654217566 H 0.0 **** 0.06
6804 H 105.5646689338441 106.07942100373931 113.01750374240316 H 0.0 **** 0.06
6805 H 105.63547341873598 105.84041458289595 111.25525006597752 H 0.0 **** 0.06
6806 C 142.02377434924915 45.05981259663163 74.22836305355993 C 0.0 **** -0.24
6807 H 142.27538385484746 45.457415114401485 75.21196755977049 H 0.0 **** 0.06
6808 H 140.94482914872114 45.11691348073357 74.0797740260273 H 0.0 **** 0.06
6809 H 142.34569224406076 44.020648806692364 74.1640407210112 H 0.0 **** 0.06
6810 H 142.5279745657653 45.64551224692798 73.46011574316488 H 0.0 **** 0.06
6811 C 104.80494879189438 52.81079919596698 0.5231801972647894 C 0.0 **** -0.24
6812 H 104.87711131888437 53.85196684141863 0.21028187787638686 H 0.0 **** 0.06
6813 H 104.63496117271183 52.180380107827546 -0.35049476853842165 H 0.0 **** 0.06
6814 H 103.97495003898493 52.697354620481406 1.2205590720497526 H 0.0 **** 0.06
6815 H 105.73307070162342 52.51296532563185 1.0104692073524326 H 0.0 **** 0.06
6816 C 65.26392530782962 110.83377388140666 95.98909527170073 C 0.0 **** -0.24
6817 H 64.20259507109913 110.8248639478319 95.7423391026036 H 0.0 **** 0.06
6818 H 65.84801632498773 110.95204452032822 95.07616994230129 H 0.0 **** 0.06
6819 H 65.53192832154181 109.89465151964829 96.47288495613493 H 0.0 **** 0.06
6820 H 65.47316151368969 111.66353553781816 96.66498708576277 H 0.0 **** 0.06
6821 C 12.07680642542774 19.816080390916966 33.98119929542562 C 0.0 **** -0.24
6822 H 11.830264449191574 18.838038604353358 34.39576565038831 H 0.0 **** 0.06
6823 H 11.305858282365499 20.53400128614919 34.26136255556904 H 0.0 **** 0.06
6824 H 12.130352547390984 19.74577090389289 32.89428884255086 H 0.0 **** 0.06
6825 H 13.040205422613802 20.14418293587056 34.371081297185896 H 0.0 **** 0.06
6826 C 101.77712755715864 25.789575278765767 96.71605109398313 C 0.0 **** -0.24
6827 H 101.30391987258952 25.026169057649554 96.09820860582863 H 0.0 **** 0.06
6828 H 101.07550373431478 26.608135284473775 96.88146419358539 H 0.0 **** 0.06
6829 H 102.6650857433701 26.168700518892507 96.2088151833376 H 0.0 **** 0.06
6830 H 102.06322727964415 25.355541687858647 97.67363276037212 H 0.0 **** 0.06
6831 C 48.41595073612305 126.53962019741451 32.70753003841247 C 0.0 **** -0.24
6832 H 48.52299898327212 125.93912499663858 33.61072662311875 H 0.0 **** 0.06
6833 H 49.07535369883348 127.40627542074324 32.76760011949074 H 0.0 **** 0.06
6834 H 47.38241401492613 126.8745375637433 32.61427156888732 H 0.0 **** 0.06
6835 H 48.682390199466084 125.93895039307964 31.838167241648534 H 0.0 **** 0.06
6836 C 29.962892620786562 6.147312163014647 107.83749451088481 C 0.0 **** -0.24
6837 H 30.76377621334553 5.530957228721661 108.24576275321708 H 0.0 **** 0.06
6838 H 29.136595589011122 6.185878778546197 108.54758446606498 H 0.0 **** 0.06
6839 H 29.615748948521926 5.715832199999994 106.89843688396296 H 0.0 **** 0.06
6840 H 30.33582370805346 7.155749810613173 107.65778134769015 H 0.0 **** 0.06
6841 C 58.55430456715963 82.64436776774822 78.65677608469983 C 0.0 **** -0.24
6842 H 57.50195602231612 82.51877987141066 78.40220170815255 H 0.0 **** 0.06
6843 H 59.00609338541312 83.37280374072442 77.98284817407543 H 0.0 **** 0.06
6844 H 59.06923501420414 81.68942014130488 78.55842720139819 H 0.0 **** 0.06
6845 H 58.63912515906448 82.99877916432591 79.68358662400806 H 0.0 **** 0.06
6846 C 100.11778783997079 27.6293948493647 99.56366235282087 C 0.0 **** -0.24
6847 H 99.26643662429927 27.962007163545678 98.96969850062203 H 0.0 **** 0.06
6848 H 101.00465980757849 28.193925617743872 99.2739572139186 H 0.0 **** 0.06
6849 H 100.28875992979425 26.56706143464939 99.38893924027514 H 0.0 **** 0.06
6850 H 99.91020067074163 27.795522474902384 100.62034444275048 H 0.0 **** 0.06
6851 C 10.52083449249892 68.56684842521695 136.6942487364186 C 0.0 **** -0.24
6852 H 10.503106502927722 67.64282206958976 136.1159357329379 H 0.0 **** 0.06
6853 H 9.5536549504979 69.06238485990721 136.61599128433582 H 0.0 **** 0.06
6854 H 11.299071664695418 69.22342039790793 136.30536052715902 H 0.0 **** 0.06
6855 H 10.729568793417968 68.33689904195342 137.73920384608456 H 0.0 **** 0.06
6856 C 96.22752430202354 120.38870933066767 126.48378582316417 C 0.0 **** -0.24
6857 H 95.32435864797662 120.6957858572573 127.01196547331844 H 0.0 **** 0.06
6858 H 96.0251443096065 119.48130250756469 125.9150160268584 H 0.0 **** 0.06
6859 H 97.02259988210449 120.19672454685667 127.20500951084324 H 0.0 **** 0.06
6860 H 96.53794668627916 121.18342797255241 125.80494699926831 H 0.0 **** 0.06
6861 C 107.66808722338276 10.011916369463428 114.4716164004921 C 0.0 **** -0.24
6862 H 108.07526620431248 9.022756462640434 114.2597180813308 H 0.0 **** 0.06
6863 H 107.3113874797716 10.043265909074641 115.50127479496415 H 0.0 **** 0.06
6864 H 106.84134184799079 10.217361092997407 113.79281571129532 H 0.0 **** 0.06
6865 H 108.4468781995037 10.761788463885786 114.33384361308542 H 0.0 **** 0.06
6866 C 3.7704422158840316 81.83731827161249 83.28216231827912 C 0.0 **** -0.24
6867 H 4.274899068806008 82.32525011384247 84.11658590885781 H 0.0 **** 0.06
6868 H 2.692204696867975 81.85977487924849 83.44727000568503 H 0.0 **** 0.06
6869 H 4.105995705974976 80.80325663196848 83.20814715355846 H 0.0 **** 0.06
6870 H 4.007176534648181 82.36353694964032 82.35718681575509 H 0.0 **** 0.06
6871 C 143.13906560724269 33.74825720419088 17.253477997437415 C 0.0 **** -0.24
6872 H 142.30602778614448 33.571396295937234 16.573559562052765 H 0.0 **** 0.06
6873 H 143.9878762161283 33.13181701191883 16.955092344983996 H 0.0 **** 0.06
6874 H 142.84051410407628 33.48980492032993 18.26918380667496 H 0.0 **** 0.06
6875 H 143.42242028584883 34.800271715869854 17.213709772078687 H 0.0 **** 0.06
6876 C 24.496265573125243 92.18401737661233 29.755407000671454 C 0.0 **** -0.24
6877 H 23.97580947678739 92.97592940142735 30.293216126106046 H 0.0 **** 0.06
6878 H 25.353502853702366 91.85124881908895 30.340096832947296 H 0.0 **** 0.06
6879 H 24.83698109596395 92.5621242533975 28.792215451021264 H 0.0 **** 0.06
6880 H 23.817415326911885 91.34575726179499 29.59648485343999 H 0.0 **** 0.06
6881 C 77.43306254315141 22.52602027772835 68.23909367868026 C 0.0 **** -0.24
6882 H 77.98825408557252 22.42833796689284 67.30700175881685 H 0.0 **** 0.06
6883 H 78.09332993301527 22.908040860293028 69.01747670162666 H 0.0 **** 0.06
6884 H 77.04828641617286 21.549435679077916 68.53601594152246 H 0.0 **** 0.06
6885 H 76.60128898264338 23.215726628156034 68.09647958060799 H 0.0 **** 0.06
6886 C 65.8981600834752 87.55425618277863 128.85347432832972 C 0.0 **** -0.24
6887 H 66.00540885114901 88.55225645787559 128.42905233431335 H 0.0 **** 0.06
6888 H 66.88475555552986 87.13303325186709 129.04676042686978 H 0.0 **** 0.06
6889 H 65.3614018149338 86.91657750731943 128.14977166047092 H 0.0 **** 0.06
6890 H 65.33888031559553 87.61450770287328 129.78664995722286 H 0.0 **** 0.06
6891 C 14.556142116975195 93.0894067127564 24.605103575325217 C 0.0 **** -0.24
6892 H 14.015332243222304 93.08946684709736 25.551489106738728 H 0.0 **** 0.06
6893 H 13.968688929498434 93.61363935289289 23.8516682659571 H 0.0 **** 0.06
6894 H 14.724474664338352 92.06122358082202 24.283724474001673 H 0.0 **** 0.06
6895 H 15.515255943948524 93.59110738012639 24.734266308767133 H 0.0 **** 0.06
6896 C 117.44640752841741 112.30944820490481 118.08204406677442 C 0.0 **** -0.24
6897 H 117.87874819157076 113.22994932748242 117.68947287363272 H 0.0 **** 0.06
6898 H 117.58272257637338 112.27529366664226 119.16228270189407 H 0.0 **** 0.06
6899 H 117.94283437283588 111.45310918361884 117.6256267534526 H 0.0 **** 0.06
6900 H 116.382193669174 112.28002429874044 117.84720154017583 H 0.0 **** 0.06
6901 C 48.89209302450311 37.25104454139022 26.944897788204315 C 0.0 **** -0.24
6902 H 49.848892718808855 36.74690493851997 27.077722731777527 H 0.0 **** 0.06
6903 H 48.60763309480522 37.21949519788148 25.8932324063135 H 0.0 **** 0.06
6904 H 48.98152335198816 38.28899668722454 27.267070880099766 H 0.0 **** 0.06
6905 H 48.13130730907736 36.750144847076086 27.543346178814346 H 0.0 **** 0.06
6906 C 108.39859139855797 3.8305502016034723 129.7455136540677 C 0.0 **** -0.24
6907 H 108.34236879475979 3.4251374450930996 128.73492152896617 H 0.0 **** 0.06
6908 H 109.4361583939396 3.8238076725693304 130.08161963200013 H 0.0 **** 0.06
6909 H 107.79489719052545 3.2197163417519903 130.41676114704154 H 0.0 **** 0.06
6910 H 108.02239496305891 4.853091817666467 129.7468322571731 H 0.0 **** 0.06
6911 C 55.606434334654665 46.30942689025758 6.961906677414191 C 0.0 **** -0.24
6912 H 54.94874054475632 45.95598694046534 7.756759511674204 H 0.0 **** 0.06
6913 H 56.57114657509415 46.587836922274434 7.385971577793896 H 0.0 **** 0.06
6914 H 55.15676707264198 47.17627987550965 6.478307540037662 H 0.0 **** 0.06
6915 H 55.74632010937526 45.51611299727813 6.227657448064605 H 0.0 **** 0.06
6916 C 55.88160294159249 117.33114461358197 142.22241067053284 C 0.0 **** -0.24
6917 H 56.140075610420766 118.38335496214016 142.10027062002337 H 0.0 **** 0.06
6918 H 54.9946649413822 117.1040992018264 141.63111019703297 H 0.0 **** 0.06
6919 H 55.67915190769307 117.1272253633751 143.2736896057359 H 0.0 **** 0.06
6920 H 56.71205878628788 116.71090000367239 141.88545874319254 H 0.0 **** 0.06
6921 C 31.271468729085697 32.93940976593659 15.293930155315273 C 0.0 **** -0.24
6922 H 30.793126211670746 32.10129294975353 15.800271457582603 H 0.0 **** 0.06
6923 H 30.50781169103478 33.59469884587989 14.87478572536154 H 0.0 **** 0.06
6924 H 31.90846380161568 32.56279669121005 14.492338079891127 H 0.0 **** 0.06
6925 H 31.878825012214612 33.49713137141953 16.00760858684712 H 0.0 **** 0.06
6926 C 138.12125800383131 44.88619249655599 110.54700320503747 C 0.0 **** -0.24
6927 H 139.20873389460115 44.8830824861119 110.46175363645688 H 0.0 **** 0.06
6928 H 137.75079139145507 43.8622037572203 110.50081403091889 H 0.0 **** 0.06
6929 H 137.69510015967288 45.46520275920341 109.72751707461845 H 0.0 **** 0.06
6930 H 137.8332322456248 45.334296066657885 111.49805328575201 H 0.0 **** 0.06
6931 C 28.23619193970393 95.90758878303392 112.32009848393461 C 0.0 **** -0.24
6932 H 27.862848706725742 95.88114736948971 111.29573495697694 H 0.0 **** 0.06
6933 H 29.321392452676477 95.79950336276217 112.31382625257378 H 0.0 **** 0.06
6934 H 27.792028294535882 95.09152920744462 112.88973372255167 H 0.0 **** 0.06
6935 H 27.968096063344447 96.85905980084975 112.77885046370959 H 0.0 **** 0.06
6936 C 97.89204354688562 78.22761821837656 142.14874305478997 C 0.0 **** -0.24
6937 H 97.29709954328986 78.8331547701718 141.46508011869025 H 0.0 **** 0.06
6938 H 98.80848203016883 78.76197446240224 142.40113332935573 H 0.0 **** 0.06
6939 H 98.14309986460415 77.2813068980193 141.66997015280594 H 0.0 **** 0.06
6940 H 97.32004052828202 78.03660785564495 143.05632084895748 H 0.0 **** 0.06
6941 C 132.71217964335014 79.48744245321404 54.30692315519616 C 0.0 **** -0.24
6942 H 132.55580246770188 78.49091815066167 53.89516674157488 H 0.0 **** 0.06
6943 H 132.46627954467243 79.48417959905477 55.369638765161085 H 0.0 **** 0.06
6944 H 132.07019052605938 80.19997548813284 53.78801990020594 H 0.0 **** 0.06
6945 H 133.75510094729728 79.77570131552584 54.17634418847348 H 0.0 **** 0.06
6946 C 142.96376525190976 97.33012580431439 94.19871742358106 C 0.0 **** -0.24
6947 H 142.70731166205923 96.5536237688268 93.47809405590175 H 0.0 **** 0.06
6948 H 142.0554952446696 97.69930788414489 94.67379745052955 H 0.0 **** 0.06
6949 H 143.46488734356183 98.15053419164231 93.68515085850669 H 0.0 **** 0.06
6950 H 143.6290064320721 96.91540845102008 94.95701594585256 H 0.0 **** 0.06
6951 C 131.5874308897574 73.0807829946597 70.33577073788884 C 0.0 **** -0.24
6952 H 131.1086986087971 72.50662387137825 71.12994997747255 H 0.0 **** 0.06
6953 H 130.920353306511 73.13546227932406 69.47584368168735 H 0.0 **** 0.06
6954 H 132.51748495772927 72.5917935163356 70.04527696095246 H 0.0 **** 0.06
6955 H 131.8022078353045 74.08738014410912 70.6951006079463 H 0.0 **** 0.06
6956 C 26.101168778209654 9.901820927085737 12.556575304350417 C 0.0 **** -0.24
6957 H 25.793691307297188 10.300613094681182 11.589398305053692 H 0.0 **** 0.06
6958 H 27.004681732078787 10.41404012485566 12.889487897422441 H 0.0 **** 0.06
6959 H 26.302552837715197 8.834706530879316 12.461959087657931 H 0.0 **** 0.06
6960 H 25.30519048983762 10.05844686708258 13.28354553077611 H 0.0 **** 0.06
6961 C 33.9493557795501 72.53327814706026 139.00981389883623 C 0.0 **** -0.24
6962 H 33.50169004420481 72.69444088064323 138.02947526842559 H 0.0 **** 0.06
6963 H 33.16440550070129 72.49912601101002 139.76616741653945 H 0.0 **** 0.06
6964 H 34.636517826459254 73.3488910629573 139.23462889571778 H 0.0 **** 0.06
6965 H 34.49455541824301 71.58926627224564 139.008895374969 H 0.0 **** 0.06
6966 C 45.622333476219424 76.62926621786752 31.95360878858608 C 0.0 **** -0.24
6967 H 46.400527125778936 76.02542933309275 32.41992256402111 H 0.0 **** 0.06
6968 H 44.733593779888935 76.62769771369025 32.585190309003025 H 0.0 **** 0.06
6969 H 45.376165134003 76.2121498799396 30.97677971758978 H 0.0 **** 0.06
6970 H 45.97973713395727 77.65146030646278 31.831351913022644 H 0.0 **** 0.06
6971 C 61.509150762275425 29.62761868661599 120.58843948136489 C 0.0 **** -0.24
6972 H 62.130956547259274 29.74781910520508 119.7009450592564 H 0.0 **** 0.06
6973 H 61.60460719927946 28.60892210488896 120.96406992862335 H 0.0 **** 0.06
6974 H 60.46838359422247 29.82463855500137 120.33110161858185 H 0.0 **** 0.06
6975 H 61.83346094669139 30.330054186365544 121.35698435299001 H 0.0 **** 0.06
6976 C 129.34479595183447 4.5037958159583695 17.386500821158535 C 0.0 **** -0.24
6977 H 130.37444910650592 4.459374853181799 17.031666981210122 H 0.0 **** 0.06
6978 H 128.721057542372 4.981331802918959 16.63058767053215 H 0.0 **** 0.06
6979 H 129.30333228151554 5.080586075058932 18.310069782405094 H 0.0 **** 0.06
6980 H 128.98113502994116 3.493091599315136 17.571745567749844 H 0.0 **** 0.06
6981 C 115.46576107495584 129.67164093108096 114.361864393613 C 0.0 **** -0.24
6982 H 115.59529903194748 129.90697239930896 113.3052869320456 H 0.0 **** 0.06
6983 H 116.44338242861407 129.58907365528248 114.83781404783791 H 0.0 **** 0.06
6984 H 114.93327144579477 128.7253935455558 114.46014764701813 H 0.0 **** 0.06
6985 H 114.89235207390611 130.46328994809824 114.84399284258664 H 0.0 **** 0.06
6986 C 68.3504429048284 61.7495971780487 107.95378184340285 C 0.0 **** -0.24
6987 H 69.41243118802424 61.509088977327096 107.91003752708053 H 0.0 **** 0.06
6988 H 68.22755647335238 62.807314403244504 108.18660386044456 H 0.0 **** 0.06
6989 H 67.87378000728035 61.14861777781424 108.72913608670007 H 0.0 **** 0.06
6990 H 67.88824327234477 61.5333330433441 106.99032024872508 H 0.0 **** 0.06
6991 C 42.34031129515208 76.58812537667217 101.46288197052542 C 0.0 **** -0.24
6992 H 42.07350491142367 77.40894700166274 102.12933763553045 H 0.0 **** 0.06
6993 H 42.22633205181708 75.64064806379582 101.9906503098205 H 0.0 **** 0.06
6994 H 43.374988786016075 76.70363099885361 101.14199759328491 H 0.0 **** 0.06
6995 H 41.685563362207006 76.60055947020845 100.59191273744209 H 0.0 **** 0.06
6996 C 109.66824019480545 30.827708249870476 45.598530464521346 C 0.0 **** -0.24
6997 H 108.77083550428394 31.192745689529616 45.09826211811401 H 0.0 **** 0.06
6998 H 110.1857825281976 31.66304832667847 46.07009889226768 H 0.0 **** 0.06
6999 H 110.32505815468265 30.35789979068899 44.86726305626638 H 0.0 **** 0.06
7000 H 109.38771423097934 30.097972604324397 46.35775042392885 H 0.0 **** 0.06
7001 C 126.96862542871821 125.88189336745413 15.963870078786613 C 0.0 **** -0.24
7002 H 127.17129799620295 126.58086484162035 15.15267800151787 H 0.0 **** 0.06
7003 H 127.03258603331653 126.40522596378466 16.918960661527365 H 0.0 **** 0.06
7004 H 127.70129997135234 125.07597181946508 15.941591986896071 H 0.0 **** 0.06
7005 H 125.96816455663026 125.46671004381997 15.84335976649237 H 0.0 **** 0.06
7006 C 88.103564403167 142.0127793428257 33.54468353494637 C 0.0 **** -0.24
7007 H 88.62408683962843 141.82905954118826 32.60606794860061 H 0.0 **** 0.06
7008 H 87.14304828777534 142.4878467316335 33.34190601838396 H 0.0 **** 0.06
7009 H 88.70704021535246 142.66788269065145 34.173733998344474 H 0.0 **** 0.06
7010 H 87.93894076822856 141.06607653588486 34.06058062884197 H 0.0 **** 0.06
7011 C 58.026025092216514 114.72048934218238 31.360518912129095 C 0.0 **** -0.24
7012 H 57.30883922389813 114.9809025434188 32.139471624318844 H 0.0 **** 0.06
7013 H 57.65988197760642 113.85583065003998 30.80586089474187 H 0.0 **** 0.06
7014 H 58.9861852058238 114.48054016387768 31.81614463543906 H 0.0 **** 0.06
7015 H 58.14618149870063 115.56424826218644 30.681456181083092 H 0.0 **** 0.06
7016 C 62.998006450557256 65.9603420413826 17.302869804742926 C 0.0 **** -0.24
7017 H 62.83141326339896 66.77019291118958 16.592658448076406 H 0.0 **** 0.06
7018 H 63.286031357712346 66.37744865644711 18.267814165229794 H 0.0 **** 0.06
7019 H 63.793479270806955 65.31217018926063 16.93370698690711 H 0.0 **** 0.06
7020 H 62.08134674550402 65.38168779265257 17.41486588581131 H 0.0 **** 0.06
7021 C 20.701332034150603 108.24414731701332 4.621592754928017 C 0.0 **** -0.24
7022 H 19.80203120521133 108.23135923281457 5.237252866864338 H 0.0 **** 0.06
7023 H 21.45947267365137 108.8665608295412 5.097971942892908 H 0.0 **** 0.06
7024 H 20.462595148313646 108.6502577245595 3.6383827288475032 H 0.0 **** 0.06
7025 H 21.081877337289846 107.22768343935495 4.512540323134633 H 0.0 **** 0.06
7026 C 94.46564744585922 51.39784002193872 118.590711565517 C 0.0 **** -0.24
7027 H 94.53929243831362 51.708500042007046 119.6328654216017 H 0.0 **** 0.06
7028 H 94.41872086110882 50.30952104199926 118.53909139019349 H 0.0 **** 0.06
7029 H 95.33958114822408 51.75052305609887 118.04346350759663 H 0.0 **** 0.06
7030 H 93.56362034485541 51.822473414465975 118.14915576618081 H 0.0 **** 0.06
7031 C 145.54250470337706 91.34413484783158 71.5908055681889 C 0.0 **** -0.24
7032 H 145.925566542463 90.54124917171951 72.21992882614218 H 0.0 **** 0.06
7033 H 144.61818792898282 91.02043271233491 71.11129918994182 H 0.0 **** 0.06
7034 H 146.28106706666946 91.59131729636812 70.82860982989773 H 0.0 **** 0.06
7035 H 145.34528770905234 92.22279020260578 72.20403967709866 H 0.0 **** 0.06
7036 C 72.43969439666655 85.05232627590512 126.49287507721832 C 0.0 **** -0.24
7037 H 73.34671210205204 84.5527000366559 126.15149781951992 H 0.0 **** 0.06
7038 H 71.8154257171553 85.29754652541027 125.63343016428544 H 0.0 **** 0.06
7039 H 72.7066719745049 85.96750240583948 127.0214945316146 H 0.0 **** 0.06
7040 H 71.89158986346239 84.391970815925 127.16359551615162 H 0.0 **** 0.06
7041 C 96.70955515750255 109.76236130479779 132.96592864594874 C 0.0 **** -0.24
7042 H 95.98141207581068 110.05718348615258 133.7218601572117 H 0.0 **** 0.06
7043 H 97.33371727332266 108.95841705600222 133.35726256434415 H 0.0 **** 0.06
7044 H 97.33540156123404 110.61793331867497 132.71176784565898 H 0.0 **** 0.06
7045 H 96.18839334520005 109.41602713721366 132.07404532477088 H 0.0 **** 0.06
7046 C 138.42340418997134 60.57814041038722 30.69404354085856 C 0.0 **** -0.24
7047 H 137.90660770998988 59.76943058851302 30.17687844318057 H 0.0 **** 0.06
7048 H 137.77038757626963 61.44956587275118 30.747230811565515 H 0.0 **** 0.06
7049 H 139.33129020750738 60.8359741562885 30.149823380431208 H 0.0 **** 0.06
7050 H 138.68328113325458 60.256370846600134 31.7027968519956 H 0.0 **** 0.06
7051 C 51.60401148270097 67.78956536264586 137.08403084505784 C 0.0 **** -0.24
7052 H 50.986131519438814 68.07536859195888 136.23243129902158 H 0.0 **** 0.06
7053 H 52.6556770473139 67.8304869855403 136.79878376197314 H 0.0 **** 0.06
7054 H 51.35010524083728 66.77501417439535 137.39127245450132 H 0.0 **** 0.06
7055 H 51.4238341370847 68.47588250027448 137.91069749700569 H 0.0 **** 0.06
7056 C 41.635717814321936 142.41717357635306 72.89556116503874 C 0.0 **** -0.24
7057 H 40.85106626465674 142.1185649495503 73.59043144934654 H 0.0 **** 0.06
7058 H 42.60769594354565 142.14875284262718 73.31015101958715 H 0.0 **** 0.06
7059 H 41.591391474350274 143.49553043025344 72.73982224873939 H 0.0 **** 0.06
7060 H 41.492198325885795 141.90576873352614 71.94423256860946 H 0.0 **** 0.06
7061 C 51.228932214829314 27.54556621260508 12.676622004128347 C 0.0 **** -0.24
7062 H 50.54489315376307 28.089978658727034 13.329019603089108 H 0.0 **** 0.06
7063 H 52.165328542099076 28.09682152538221 12.59288802863378 H 0.0 **** 0.06
7064 H 50.779662539989346 27.438843675907833 11.689346485836182 H 0.0 **** 0.06
7065 H 51.42353919810253 26.558953161613545 13.09703573215674 H 0.0 **** 0.06
7066 C 68.87810193742578 16.85014315162053 106.16320340185294 C 0.0 **** -0.24
7067 H 69.41031175905613 17.426579568764424 105.40733396529689 H 0.0 **** 0.06
7068 H 69.47146225260737 16.81262500024357 107.07606032594632 H 0.0 **** 0.06
7069 H 68.7114302399348 15.837524742640824 105.7952612605724 H 0.0 **** 0.06
7070 H 67.91813449234061 17.32354255529009 106.37197469935055 H 0.0 **** 0.06
7071 C 53.588585409410314 78.68797063831983 67.64906146157767 C 0.0 **** -0.24
7072 H 53.154434312726494 78.56576983400137 68.64218469435991 H 0.0 **** 0.06
7073 H 53.66034332695682 79.74876837537889 67.41198595646858 H 0.0 **** 0.06
7074 H 52.95565915969138 78.19153878515468 66.91276483604742 H 0.0 **** 0.06
7075 H 54.58388413524494 78.24271333474925 67.63141709475235 H 0.0 **** 0.06
7076 C 127.4815962660979 26.537818389078254 17.04235729507093 C 0.0 **** -0.24
7077 H 126.6169089238201 26.437702412299025 16.385953830518645 H 0.0 **** 0.06
7078 H 128.32976260568884 26.91601784373382 16.470653717915013 H 0.0 **** 0.06
7079 H 127.73236073874152 25.5642395217018 17.46306532754312 H 0.0 **** 0.06
7080 H 127.2474980994703 27.23240681952724 17.848680944094667 H 0.0 **** 0.06
7081 C 140.8085041237471 43.58574077708985 88.77994905923453 C 0.0 **** -0.24
7082 H 140.95239749806026 43.41530020137208 89.84690529335194 H 0.0 **** 0.06
7083 H 141.63405092194938 44.18513567581111 88.39390345133023 H 0.0 **** 0.06
7084 H 139.86963633777557 44.11474529548465 88.61903182102364 H 0.0 **** 0.06
7085 H 140.78034153311157 42.62892561715287 88.25901480681534 H 0.0 **** 0.06
7086 C 53.24170441302998 26.700344142305525 97.44896854821513 C 0.0 **** -0.24
7087 H 53.05690774989161 25.76470073551269 97.97545069082526 H 0.0 **** 0.06
7088 H 54.07206829804609 26.569758272574518 96.75490006916152 H 0.0 **** 0.06
7089 H 53.489938584241585 27.480019068359624 98.1696430493123 H 0.0 **** 0.06
7090 H 52.347796199659996 26.989331552300698 96.89561756639216 H 0.0 **** 0.06
7091 C 95.10469820368091 141.76444354181075 81.79687265357478 C 0.0 **** -0.24
7092 H 95.33291566003294 141.21411977331 82.70978308152323 H 0.0 **** 0.06
7093 H 96.01069779129521 141.86652526738337 81.19807215264969 H 0.0 **** 0.06
7094 H 94.72599696545248 142.7534231951082 82.0545342619918 H 0.0 **** 0.06
7095 H 94.35069881481753 141.22379159566768 81.22593374803284 H 0.0 **** 0.06
7096 C 118.73986168492141 107.82916478893567 118.23587718134092 C 0.0 **** -0.24
7097 H 118.79598202591322 107.7591012575471 117.15008739640302 H 0.0 **** 0.06
7098 H 119.30415018804004 108.69846609731415 118.57291664406131 H 0.0 **** 0.06
7099 H 119.16169271623025 106.9272271992232 118.68033201564867 H 0.0 **** 0.06
7100 H 117.69741784737127 107.93072615838706 118.5393587689303 H 0.0 **** 0.06
7101 C 122.94295189175205 79.08109689201216 20.821144011985623 C 0.0 **** -0.24
7102 H 121.89802242135893 78.78357742254566 20.916572124984896 H 0.0 **** 0.06
7103 H 123.05288285626872 79.75106441360599 19.967844157662284 H 0.0 **** 0.06
7104 H 123.55968907283489 78.19529109804618 20.67119997257948 H 0.0 **** 0.06
7105 H 123.25877611041719 79.5942700574768 21.729123216618035 H 0.0 **** 0.06
7106 C 131.12528418758257 28.19795946965843 30.726856321911626 C 0.0 **** -0.24
7107 H 130.50332318829035 28.330063685395487 31.613487016379537 H 0.0 **** 0.06
7108 H 130.54518794414426 28.442859062135597 29.83725280081525 H 0.0 **** 0.06
7109 H 131.45981117004212 27.162328113276885 30.670029662509094 H 0.0 **** 0.06
7110 H 131.99086377913883 28.85684172198944 30.788920848890015 H 0.0 **** 0.06
7111 C 16.860921840715314 116.6634883549487 60.784856911763484 C 0.0 **** -0.24
7112 H 15.946494833670876 116.07084406664484 60.805372287256546 H 0.0 **** 0.06
7113 H 17.619933795484684 116.18015227260713 61.400561395372165 H 0.0 **** 0.06
7114 H 16.656053808007854 117.66049192685591 61.17433713569778 H 0.0 **** 0.06
7115 H 17.2197423110183 116.74085801180325 59.758629503710424 H 0.0 **** 0.06
7116 C 125.12138721222317 51.85592351120232 120.40530827719537 C 0.0 **** -0.24
7117 H 124.49228686150032 51.01750074237839 120.7059225632084 H 0.0 **** 0.06
7118 H 125.802515164918 51.53494594010061 119.61753674748424 H 0.0 **** 0.06
7119 H 125.69670955955317 52.202929421956185 121.26368697931538 H 0.0 **** 0.06
7120 H 124.49389851283152 52.66667674586995 120.03659433191375 H 0.0 **** 0.06
7121 C 75.98271923531212 51.07242847025397 53.605810441068115 C 0.0 **** -0.24
7122 H 76.43638769196428 51.128590263837495 52.61642241297915 H 0.0 **** 0.06
7123 H 74.92105161379686 50.8468049467147 53.50622742395814 H 0.0 **** 0.06
7124 H 76.10592038557832 52.02783796176813 54.116347510966534 H 0.0 **** 0.06
7125 H 76.46905762690665 50.28727214593229 54.18427598930839 H 0.0 **** 0.06
7126 C 27.496269705266997 43.25739219945807 139.94044632404592 C 0.0 **** -0.24
7127 H 27.16280555029485 44.04790334889894 139.26704321977857 H 0.0 **** 0.06
7128 H 28.52318890530796 43.45460028213306 140.25051871964183 H 0.0 **** 0.06
7129 H 27.44913565034068 42.298269125479806 139.4248581158152 H 0.0 **** 0.06
7130 H 26.850192839542274 43.23175478610047 140.817087776537 H 0.0 **** 0.06
7131 C 113.8050115169109 96.68343321949538 29.972319142998487 C 0.0 **** -0.24
7132 H 112.73807170613736 96.89804767995355 30.01822013594054 H 0.0 **** 0.06
7133 H 114.16729411242602 96.85239575494245 28.957713343720002 H 0.0 **** 0.06
7134 H 113.97840542851407 95.64415214992698 30.252974345653854 H 0.0 **** 0.06
7135 H 114.33681744512455 97.33921379000213 30.66253667777434 H 0.0 **** 0.06
7136 C 112.23206409091809 125.72995754598608 130.85339886464024 C 0.0 **** -0.24
7137 H 112.95417502629427 124.95782948265364 131.1178869067633 H 0.0 **** 0.06
7138 H 112.76093649497533 126.6220357682096 130.51756061401576 H 0.0 **** 0.06
7139 H 111.6253695320499 125.97388506090383 131.72659818980236 H 0.0 **** 0.06
7140 H 111.58696939220137 125.36671258248688 130.0537747054372 H 0.0 **** 0.06
7141 C 132.02283781752553 61.468055831132546 78.27369365000467 C 0.0 **** -0.24
7142 H 131.22582653022474 62.05097277488059 78.73755120563277 H 0.0 **** 0.06
7143 H 132.0143153563519 60.45634991342672 78.6789792164318 H 0.0 **** 0.06
7144 H 132.9839536977557 61.93669485257604 78.48274767095168 H 0.0 **** 0.06
7145 H 131.8633896841333 61.42989137502272 77.19595867508585 H 0.0 **** 0.06
7146 C 84.2701999942293 83.21083241368285 92.99701287492158 C 0.0 **** -0.24
7147 H 83.75887987098466 83.39180514900215 93.94209354098692 H 0.0 **** 0.06
7148 H 85.06786924503083 83.9419505253172 92.87000532059895 H 0.0 **** 0.06
7149 H 83.5583593085187 83.30239258229912 92.17659866642632 H 0.0 **** 0.06
7150 H 84.69347968363249 82.20687569138269 92.9994739651552 H 0.0 **** 0.06
7151 C 51.274418757125915 44.343278747431214 135.6913837044083 C 0.0 **** -0.24
7152 H 51.12001715511306 45.40662760553545 135.5057973725068 H 0.0 **** 0.06
7153 H 51.57446603065162 43.85368275642594 134.76513088952444 H 0.0 **** 0.06
7154 H 50.34695942680111 43.89955703468223 136.0532719822208 H 0.0 **** 0.06
7155 H 52.05553314858858 44.215156122041606 136.4399675311457 H 0.0 **** 0.06
7156 C 67.70954846902222 145.21212288679527 15.990601157734119 C 0.0 **** -0.24
7157 H 68.17445451383286 146.11248201797065 16.393676524300787 H 0.0 **** 0.06
7158 H 68.17608366950185 144.9574141925391 15.038734410150965 H 0.0 **** 0.06
7159 H 66.6458125875403 145.38951947714486 15.838215992470083 H 0.0 **** 0.06
7160 H 67.84462809329446 144.3895665657344 16.693193149396677 H 0.0 **** 0.06
7161 C 34.39189700744288 113.4415484667548 11.269595049344957 C 0.0 **** -0.24
7162 H 34.9940989769988 113.09195067669219 10.431439910080996 H 0.0 **** 0.06
7163 H 33.39925828704871 112.992657496726 11.21436605252967 H 0.0 **** 0.06
7164 H 34.30329673147125 114.5270760452172 11.225757101787337 H 0.0 **** 0.06
7165 H 34.869803103411144 113.15324686745004 12.205755740277624 H 0.0 **** 0.06
7166 C 94.08029114100991 134.5119901197488 125.69347088043105 C 0.0 **** -0.24
7167 H 94.39649105531197 134.06805364636998 124.74976706144008 H 0.0 **** 0.06
7168 H 93.03527765776875 134.8158333143816 125.61905241237594 H 0.0 **** 0.06
7169 H 94.69779719651025 135.38403273202024 125.91004852324753 H 0.0 **** 0.06
7170 H 94.19080575507073 133.78081176391194 126.49368246988823 H 0.0 **** 0.06
7171 C 8.568867640431876 43.940521445656316 50.05322710775039 C 0.0 **** -0.24
7172 H 8.735141193680022 45.017083337608426 50.079139649745 H 0.0 **** 0.06
7173 H 9.461818384189513 43.42673278520789 50.41050307480691 H 0.0 **** 0.06
7174 H 8.356148724449838 43.63065044823435 49.030771014663515 H 0.0 **** 0.06
7175 H 7.723513213379164 43.68770975394051 50.69331151147264 H 0.0 **** 0.06
7176 C 76.16831530356552 101.8760878044964 2.1302707931970986 C 0.0 **** -0.24
7177 H 76.23259612761501 102.89016520795411 2.5225306757489534 H 0.0 **** 0.06
7178 H 75.1809281718808 101.46586867787525 2.3441512601242493 H 0.0 **** 0.06
7179 H 76.92916266829371 101.25471080049638 2.601879500487996 H 0.0 **** 0.06
7180 H 76.32944119303926 101.89192102235475 1.0515860726463302 H 0.0 **** 0.06
7181 C 15.827209579449914 143.6717591437936 31.83976764923863 C 0.0 **** -0.24
7182 H 14.96212806773066 143.98817625899952 31.256898805560056 H 0.0 **** 0.06
7183 H 15.84150303823781 142.5837786943796 31.906214204441014 H 0.0 **** 0.06
7184 H 15.766319843404474 144.09660834452416 32.84095765461423 H 0.0 **** 0.06
7185 H 16.739011493339774 144.01790505793286 31.35173462985835 H 0.0 **** 0.06
7186 C 76.27678502582563 32.15721948819905 105.17628442876847 C 0.0 **** -0.24
7187 H 76.81578092543151 31.843276744739825 106.06970159568472 H 0.0 **** 0.06
7188 H 75.23396155501132 31.850420561949562 105.25507853665304 H 0.0 **** 0.06
7189 H 76.72711446116688 31.694428703401996 104.29882107700892 H 0.0 **** 0.06
7190 H 76.3304568911455 33.24169876427757 105.08257257249647 H 0.0 **** 0.06
7191 C 35.68940365502007 118.76078420705508 1.0342738908845739 C 0.0 **** -0.24
7192 H 35.913055937028986 119.53937777202597 1.7632578370881369 H 0.0 **** 0.06
7193 H 35.06348747530993 117.99818590986499 1.4978196533196986 H 0.0 **** 0.06
7194 H 36.61968010558542 118.3078960274211 0.6896930307496447 H 0.0 **** 0.06
7195 H 35.16232552192332 119.19838400423887 0.18553304478488286 H 0.0 **** 0.06
7196 C 108.75903819862094 109.29917237751465 51.76657879983247 C 0.0 **** -0.24
7197 H 109.05899761388253 109.75913575888382 50.825071535929254 H 0.0 **** 0.06
7198 H 107.79330439763248 109.70123911751887 52.075773782324376 H 0.0 **** 0.06
7199 H 109.50508892799456 109.51751203365853 52.53121599256062 H 0.0 **** 0.06
7200 H 108.67825625129029 108.22049987906018 51.635183288012485 H 0.0 **** 0.06
7201 C 71.23582133963266 145.10130720382182 36.44513163436321 C 0.0 **** -0.24
7202 H 72.22003694378967 145.56857578241085 36.40649700800273 H 0.0 **** 0.06
7203 H 71.10412331527746 144.45851555607166 35.574817082760234 H 0.0 **** 0.06
7204 H 70.46640191285842 145.87425512239244 36.44559680635368 H 0.0 **** 0.06
7205 H 71.15242822710381 144.505531378541 37.3547082944647 H 0.0 **** 0.06
7206 C 136.7796510215815 53.7591048528671 58.08214757910277 C 0.0 **** -0.24
7207 H 136.85127732042687 54.51342773366116 58.86585388324008 H 0.0 **** 0.06
7208 H 135.86276234141658 53.913584200615105 57.513032309129045 H 0.0 **** 0.06
7209 H 136.76500926459417 52.767455366280956 58.53318944404799 H 0.0 **** 0.06
7210 H 137.6391297143736 53.843490570372126 57.41718718995554 H 0.0 **** 0.06
7211 C 116.00212946009474 54.326936791765604 102.65484579678082 C 0.0 **** -0.24
7212 H 115.89746264155578 55.28965355727922 103.15428162264209 H 0.0 **** 0.06
7213 H 115.98320494350294 53.528933774403924 103.39753750402724 H 0.0 **** 0.06
7214 H 116.948227688487 54.29863740911253 102.11399165957619 H 0.0 **** 0.06
7215 H 115.17832244836414 54.19002504411117 101.95382218142413 H 0.0 **** 0.06
7216 C 118.08000286716118 83.17235159936114 122.00889887064982 C 0.0 **** -0.24
7217 H 117.17427624732771 82.73235106779275 122.42597045861486 H 0.0 **** 0.06
7218 H 117.83593681698032 84.12061426215945 121.52884613315585 H 0.0 **** 0.06
7219 H 118.50905105524073 82.49237361618108 121.27317237557928 H 0.0 **** 0.06
7220 H 118.80098399035744 83.3449313702172 122.8080511372454 H 0.0 **** 0.06
7221 C 84.29138614276967 19.247959672634472 3.3305782316358545 C 0.0 **** -0.24
7222 H 84.6153920115775 20.28140411300916 3.200633014714242 H 0.0 **** 0.06
7223 H 84.49562286733985 18.68626824490881 2.4190964749906243 H 0.0 **** 0.06
7224 H 83.22227721389237 19.22623452537959 3.5390583539008276 H 0.0 **** 0.06
7225 H 84.83346591537855 18.80000746182497 4.1630565847860055 H 0.0 **** 0.06
7226 C 82.77351377827407 106.59416881960667 127.2787758464199 C 0.0 **** -0.24
7227 H 82.15642654355557 106.90623001658909 126.43525399095806 H 0.0 **** 0.06
7228 H 82.48956117579681 107.16132054399733 128.16602597951027 H 0.0 **** 0.06
7229 H 83.82275796823663 106.77948359948365 127.04823957661245 H 0.0 **** 0.06
7230 H 82.62346433823632 105.53090960787475 127.4633506740004 H 0.0 **** 0.06
7231 C 2.0311638238730154 54.15574347754426 54.835844254921795 C 0.0 **** -0.24
7232 H 2.8773157743332547 53.47389033680082 54.917336849416415 H 0.0 **** 0.06
7233 H 1.1011577742373788 53.5910590487627 54.91653028538883 H 0.0 **** 0.06
7234 H 2.0652773108455165 54.66233966741373 53.871630875527046 H 0.0 **** 0.06
7235 H 2.080149810267642 54.89345261078205 55.63631441187451 H 0.0 **** 0.06
7236 C 6.802797836774147 28.661013483129807 80.5534328671674 C 0.0 **** -0.24
7237 H 7.115793479412531 27.639305809438625 80.34073822808395 H 0.0 **** 0.06
7238 H 7.589864275965311 29.352170077536556 80.25184394196853 H 0.0 **** 0.06
7239 H 6.615377826765354 28.76848600049648 81.62239327284621 H 0.0 **** 0.06
7240 H 5.890983040820998 28.884654015904026 80.00017021615454 H 0.0 **** 0.06
7241 C 139.47361576201965 34.41117798580682 75.44224873127735 C 0.0 **** -0.24
7242 H 140.05499898454227 34.688199865929356 76.32265852227968 H 0.0 **** 0.06
7243 H 140.13786780419858 34.315157700306116 74.58423173730276 H 0.0 **** 0.06
7244 H 138.7291497052979 35.18169915936498 75.24289906573435 H 0.0 **** 0.06
7245 H 138.97239953490882 33.460290646964665 75.62351777426917 H 0.0 **** 0.06
7246 C 34.27812968908847 95.09901046299274 28.859408026295355 C 0.0 **** -0.24
7247 H 33.45655521686314 94.75533037893717 29.48764943618376 H 0.0 **** 0.06
7248 H 34.99101331090014 94.28628765335145 28.7182219894474 H 0.0 **** 0.06
7249 H 34.776676155552536 95.9402380263096 29.34082312603833 H 0.0 **** 0.06
7250 H 33.88895099651455 95.41294432016068 27.89096217533765 H 0.0 **** 0.06
7251 C 92.38480501304105 10.230793537082576 110.2847758045633 C 0.0 **** -0.24
7252 H 92.98017643061726 9.357844980961659 110.55480477997743 H 0.0 **** 0.06
7253 H 92.67471818082547 11.07515352520494 110.91017364803416 H 0.0 **** 0.06
7254 H 91.32781374778722 10.01106564265649 110.43696660235842 H 0.0 **** 0.06
7255 H 92.5583090296227 10.477474267290859 109.23685123017087 H 0.0 **** 0.06
7256 C 103.86580532055018 55.7753406831786 12.13754367025863 C 0.0 **** -0.24
7257 H 103.03242913518159 55.45861892791555 12.764570268545015 H 0.0 **** 0.06
7258 H 104.35061569088242 54.898569724813626 11.70786762907116 H 0.0 **** 0.06
7259 H 104.58547723611798 56.32837999236287 12.74146814438415 H 0.0 **** 0.06
7260 H 103.49574323941789 56.41460874095978 11.336979348419426 H 0.0 **** 0.06
7261 C 33.71761553568703 77.34865089290847 37.481396956396765 C 0.0 **** -0.24
7262 H 34.70237744033682 77.45622133450499 37.936193054101835 H 0.0 **** 0.06
7263 H 33.05596565162281 76.82149512151159 38.16816117052049 H 0.0 **** 0.06
7264 H 33.804847724693474 76.78334568370934 36.55408879973376 H 0.0 **** 0.06
7265 H 33.307617716697706 78.33698246438766 37.267344383813736 H 0.0 **** 0.06
7266 C 97.31110477017427 80.35238227086133 20.797580136227495 C 0.0 **** -0.24
7267 H 98.24911407145947 80.88650417149931 20.64265987268505 H 0.0 **** 0.06
7268 H 97.0632812143532 79.78527203907804 19.90016697676446 H 0.0 **** 0.06
7269 H 96.5154688888345 81.06889209719722 21.005861637659805 H 0.0 **** 0.06
7270 H 97.41649760150415 79.6712730048505 21.64121000488217 H 0.0 **** 0.06
7271 C 67.37942018026226 107.1105255197462 104.51529369318698 C 0.0 **** -0.24
7272 H 66.65856641387589 106.66772033916686 105.20297773284044 H 0.0 **** 0.06
7273 H 67.95553078169124 106.32050479406979 104.0343096052228 H 0.0 **** 0.06
7274 H 68.0527587150597 107.76651318272206 105.06837629609286 H 0.0 **** 0.06
7275 H 66.85080022541715 107.6881509457549 103.75705382131159 H 0.0 **** 0.06
7276 C 49.97465954904777 135.77711900212952 67.57957037769997 C 0.0 **** -0.24
7277 H 49.199986335144445 136.2966990623571 67.01638316869719 H 0.0 **** 0.06
7278 H 50.84162892791261 135.61371287723276 66.93980760102683 H 0.0 **** 0.06
7279 H 49.59108381822813 134.8167828552058 67.9249948497632 H 0.0 **** 0.06
7280 H 50.26552507898134 136.38158679970778 68.4392719910041 H 0.0 **** 0.06
7281 C 86.28106421211616 137.66741295338102 127.3363530678667 C 0.0 **** -0.24
7282 H 86.3689014254039 136.85307467720102 126.6164393663939 H 0.0 **** 0.06
7283 H 85.23325785126663 137.94710560379286 127.44208723028302 H 0.0 **** 0.06
7284 H 86.8532010978452 138.52581943150187 126.98370789384295 H 0.0 **** 0.06
7285 H 86.67103837633067 137.34253023539495 128.30090750515117 H 0.0 **** 0.06
7286 C 113.596336848685 107.385621686914 51.34640764176265 C 0.0 **** -0.24
7287 H 113.17140723559204 107.95174184734272 50.517955076302286 H 0.0 **** 0.06
7288 H 114.21957720014602 108.04221328710723 51.953751732567895 H 0.0 **** 0.06
7289 H 114.20347106895456 106.56874677423384 50.955320254451436 H 0.0 **** 0.06
7290 H 112.79161160073203 106.97826065991093 51.959002284076405 H 0.0 **** 0.06
7291 C 60.35272094780417 44.61481656963436 80.61515815650165 C 0.0 **** -0.24
7292 H 60.335741220788734 44.58866913113734 79.52535408215891 H 0.0 **** 0.06
7293 H 61.37280881201943 44.78885665008585 80.95791128467243 H 0.0 **** 0.06
7294 H 59.993893715200784 43.663349146431486 81.00622798051006 H 0.0 **** 0.06
7295 H 59.70838050764938 45.419848099929666 80.96833307579453 H 0.0 **** 0.06
7296 C 129.4125087274954 126.64862569617512 131.27004668533692 C 0.0 **** -0.24
7297 H 128.3921181238425 126.46656019192508 131.6093947746155 H 0.0 **** 0.06
7298 H 130.0915802345896 125.96518826824641 131.77916851496937 H 0.0 **** 0.06
7299 H 129.69234116776053 127.67712097565581 131.497242956178 H 0.0 **** 0.06
7300 H 129.47058504098473 126.48532390197485 130.19325161452883 H 0.0 **** 0.06
7301 C 76.45379902197098 87.71847829575057 26.593301708448195 C 0.0 **** -0.24
7302 H 75.49040804320839 87.20926925624386 26.56985247421943 H 0.0 **** 0.06
7303 H 76.38125774112643 88.60445541837842 27.22425432682408 H 0.0 **** 0.06
7304 H 76.73290640538471 88.01433185220378 25.581731313269927 H 0.0 **** 0.06
7305 H 77.21072723189006 87.04542552160194 26.996472344110373 H 0.0 **** 0.06
7306 C 39.33150048691677 142.7401952729784 26.207344576431183 C 0.0 **** -0.24
7307 H 39.41986756032704 142.50119360204982 27.26656141176801 H 0.0 **** 0.06
7308 H 40.323740599038395 142.92405097367904 25.79308304236548 H 0.0 **** 0.06
7309 H 38.71542151171437 143.63094337890743 26.08544136352043 H 0.0 **** 0.06
7310 H 38.86835924390878 141.90338574282416 25.6835059163879 H 0.0 **** 0.06
7311 C 29.819034850718594 64.77006017646062 27.921092958113746 C 0.0 **** -0.24
7312 H 29.492876891988175 64.88838195340648 28.955136432049073 H 0.0 **** 0.06
7313 H 30.565945728450856 63.978577791205794 27.864254178296733 H 0.0 **** 0.06
7314 H 30.25315382463407 65.70628787215358 27.56942786367756 H 0.0 **** 0.06
7315 H 28.963120951098063 64.50990778399502 27.298455006556367 H 0.0 **** 0.06
7316 C 0.14421563001417326 3.987600582129403 135.31186670428875 C 0.0 **** -0.24
7317 H 0.7168310372384212 4.402562658977331 136.1417938093679 H 0.0 **** 0.06
7318 H 0.8221988838806737 3.724386141358025 134.49914361401952 H 0.0 **** 0.06
7319 H -0.57480714698886 4.728332937755738 134.96136172762564 H 0.0 **** 0.06
7320 H -0.3855512696308665 3.095816524742702 135.6462827756089 H 0.0 **** 0.06
7321 C 97.30071146098025 71.99627754711832 23.81268137464958 C 0.0 **** -0.24
7322 H 96.53851823472769 72.63830885385977 23.37064381679393 H 0.0 **** 0.06
7323 H 97.65901556030353 71.28908143377015 23.064030745389196 H 0.0 **** 0.06
7324 H 96.87152054675722 71.449663254467 24.653271010152203 H 0.0 **** 0.06
7325 H 98.13164330382223 72.60740029959499 24.16375702145489 H 0.0 **** 0.06
7326 C 101.41572189059042 118.12504556216102 56.22682647077497 C 0.0 **** -0.24
7327 H 101.07249799325496 118.17953339395142 55.19452309700196 H 0.0 **** 0.06
7328 H 101.5224609802102 119.13302946098689 56.62806098634903 H 0.0 **** 0.06
7329 H 102.37852094685847 117.61457211736594 56.26340202001049 H 0.0 **** 0.06
7330 H 100.6893766042862 117.57211683536961 56.822384394045145 H 0.0 **** 0.06
7331 C 130.0864751927961 136.90324511162754 25.05430692424636 C 0.0 **** -0.24
7332 H 129.89445224543488 137.2513072198011 24.038549607574197 H 0.0 **** 0.06
7333 H 131.15562074105625 136.9515796732351 25.258738878293343 H 0.0 **** 0.06
7334 H 129.74292423948015 135.87401990831398 25.155894817650022 H 0.0 **** 0.06
7335 H 129.55146723655704 137.5373510072482 25.76196937226416 H 0.0 **** 0.06
7336 C 29.307841203378928 92.99070087454496 42.532616000459356 C 0.0 **** -0.24
7337 H 29.946708069771347 92.92467384883011 43.41350105047195 H 0.0 **** 0.06
7338 H 29.37122449139875 93.99525350591642 42.1138529604772 H 0.0 **** 0.06
7339 H 28.277486218811617 92.77694688267412 42.81460833741265 H 0.0 **** 0.06
7340 H 29.63949628299858 92.26498940904403 41.789217906951336 H 0.0 **** 0.06
7341 C 20.484786572527206 102.10553787005455 104.79813481259697 C 0.0 **** -0.24
7342 H 20.322865375606796 102.45146239167907 105.81885153732294 H 0.0 **** 0.06
7343 H 19.803143804355308 102.62726094499853 104.12492596623784 H 0.0 **** 0.06
7344 H 20.29841761081704 101.03302906791363 104.7439373123769 H 0.0 **** 0.06
7345 H 21.514034133866453 102.31161429220458 104.50459289565241 H 0.0 **** 0.06
7346 C 126.66108847815063 2.8290116241027086 36.83641498241723 C 0.0 **** -0.24
7347 H 126.162788576667 1.8994598489028292 37.11072061569375 H 0.0 **** 0.06
7348 H 127.568533345663 2.603444108743023 36.27487596059309 H 0.0 **** 0.06
7349 H 126.9203429535723 3.3823129083779797 37.73989036594315 H 0.0 **** 0.06
7350 H 125.99274450182534 3.4320431574585264 36.22089711659257 H 0.0 **** 0.06
7351 C 96.1788203184317 78.07572192580162 127.14625106848061 C 0.0 **** -0.24
7352 H 95.19100670896253 77.96537832955744 127.59304121721992 H 0.0 **** 0.06
7353 H 96.092712194893 78.61409827278811 126.20214184890646 H 0.0 **** 0.06
7354 H 96.60763272564803 77.0894347959318 126.9657502035493 H 0.0 **** 0.06
7355 H 96.8235193569565 78.63362754544544 127.8253787192559 H 0.0 **** 0.06
7356 C 141.5231440437186 65.97296542821152 3.7066732926213675 C 0.0 **** -0.24
7357 H 141.18737310370827 65.33674309579385 2.888574973732119 H 0.0 **** 0.06
7358 H 140.66649889007772 66.26914858956502 4.311587737161698 H 0.0 **** 0.06
7359 H 142.00756447196844 66.86139980371678 3.3016916873817017 H 0.0 **** 0.06
7360 H 142.23317844799428 65.42384912283194 4.325989345689937 H 0.0 **** 0.06
7361 C 86.38034129413982 44.00835760811049 91.44585271638005 C 0.0 **** -0.24
7362 H 85.91334757897158 43.572466040348814 90.56252586949465 H 0.0 **** 0.06
7363 H 87.12612359334712 44.74149225917043 91.13786528014415 H 0.0 **** 0.06
7364 H 86.86007831880536 43.221951272645526 92.02825321838739 H 0.0 **** 0.06
7365 H 85.62000207152775 44.49793623948395 92.05403271316776 H 0.0 **** 0.06
7366 C 49.99136076891787 60.74205226910384 125.39881947700698 C 0.0 **** -0.24
7367 H 50.70458476428672 60.13716352139632 125.95907928085353 H 0.0 **** 0.06
7368 H 50.52751669214251 61.37352400571048 124.69112383448851 H 0.0 **** 0.06
7369 H 49.4259304299635 61.36811010367501 126.08955896887491 H 0.0 **** 0.06
7370 H 49.30705514154306 60.0883670171402 124.85770275344531 H 0.0 **** 0.06
7371 C 46.274522045870214 93.66825070899725 48.33668257891961 C 0.0 **** -0.24
7372 H 47.35880067732839 93.5577285063043 48.31984241951017 H 0.0 **** 0.06
7373 H 45.93454978978963 94.05604335109308 47.37623547352658 H 0.0 **** 0.06
7374 H 45.99267919941414 94.36146229921411 49.128945274052825 H 0.0 **** 0.06
7375 H 45.81444770135613 92.69807559016047 48.52126232757999 H 0.0 **** 0.06
7376 C 97.81315417272768 123.07401533724354 51.13076685896212 C 0.0 **** -0.24
7377 H 97.6524703674857 121.99889420517026 51.046403395562265 H 0.0 **** 0.06
7378 H 98.2603162436493 123.44783144515807 50.20969276053239 H 0.0 **** 0.06
7379 H 98.48068650768346 123.27616953899017 51.96874071389115 H 0.0 **** 0.06
7380 H 96.85850032617162 123.57105480439674 51.299999396864365 H 0.0 **** 0.06
7381 C 54.88146518177709 99.69682329784203 53.5982326681162 C 0.0 **** -0.24
7382 H 53.93575191332263 99.15716607201371 53.63159924396916 H 0.0 **** 0.06
7383 H 55.095868367050514 99.99256365969698 52.57145772136781 H 0.0 **** 0.06
7384 H 55.68044162639298 99.05117606687925 53.965102216343865 H 0.0 **** 0.06
7385 H 54.81448539913055 100.58501502888538 54.226680807155105 H 0.0 **** 0.06
7386 C 109.29216424709814 86.27023554154505 141.86980308669047 C 0.0 **** -0.24
7387 H 108.48090638923718 85.57711336890364 141.64725143515693 H 0.0 **** 0.06
7388 H 109.04732921057327 86.84050554088304 142.76669543986702 H 0.0 **** 0.06
7389 H 109.42865770802221 86.95169871559173 141.0301493656349 H 0.0 **** 0.06
7390 H 110.21236447845918 85.7101040013921 142.03664162902928 H 0.0 **** 0.06
7391 C 136.99671907356407 47.00402919490858 78.19900552434663 C 0.0 **** -0.24
7392 H 136.56344712035195 47.28413889238351 77.23828968987598 H 0.0 **** 0.06
7393 H 138.07544069338232 46.88979184402862 78.09083249780363 H 0.0 **** 0.06
7394 H 136.5616702101774 46.061202562759775 78.53129507668865 H 0.0 **** 0.06
7395 H 136.78417570916233 47.78131891940754 78.9330953723595 H 0.0 **** 0.06
7396 C 53.456992453038865 54.25327873117624 125.83526545015046 C 0.0 **** -0.24
7397 H 52.684065917357344 53.57285561060104 125.47916461557583 H 0.0 **** 0.06
7398 H 53.17529080150122 54.64324600973066 126.8131660488284 H 0.0 **** 0.06
7399 H 53.5652932598603 55.07923397514037 125.1322080045519 H 0.0 **** 0.06
7400 H 54.40359194057409 53.71787018382821 125.91556514060703 H 0.0 **** 0.06
7401 C 102.20712148555009 101.55423025041036 110.57891962939756 C 0.0 **** -0.24
7402 H 103.16000946641537 101.74160667217186 111.07336825798312 H 0.0 **** 0.06
7403 H 102.25837289138201 101.9059178187688 109.54738865894369 H 0.0 **** 0.06
7404 H 101.41451111767861 102.08476180772145 111.10566902587995 H 0.0 **** 0.06
7405 H 101.99777133981007 100.48389184274076 110.58841535746687 H 0.0 **** 0.06
7406 C 113.03653453740631 45.652514785073876 79.43046921175065 C 0.0 **** -0.24
7407 H 114.0267333696456 45.66394043797331 78.97352207992704 H 0.0 **** 0.06
7408 H 112.60874225333166 46.65470254077296 79.3927678688648 H 0.0 **** 0.06
7409 H 113.11948160191295 45.33024771190637 80.46834040134432 H 0.0 **** 0.06
7410 H 112.39364131085156 44.961593323205875 78.88558325432527 H 0.0 **** 0.06
7411 C 44.54647374199561 54.64022685708028 50.23961686020081 C 0.0 **** -0.24
7412 H 44.20334374768815 53.744503837650484 49.72184859386789 H 0.0 **** 0.06
7413 H 45.63631316971221 54.66815621987297 50.23616894596762 H 0.0 **** 0.06
7414 H 44.18592089902343 54.625423393242215 51.267537258905435 H 0.0 **** 0.06
7415 H 44.15888457039726 55.52382112355758 49.731936124887056 H 0.0 **** 0.06
7416 C 69.68357786255791 6.169747807968179 42.40600411714843 C 0.0 **** -0.24
7417 H 70.45082395391753 6.9206580149907495 42.21234390644207 H 0.0 **** 0.06
7418 H 69.17804634025053 6.400478575622856 43.343033483468105 H 0.0 **** 0.06
7419 H 70.14901119960894 5.186254386754911 42.47649829119878 H 0.0 **** 0.06
7420 H 68.95951262229846 6.172518097889025 41.59133133376912 H 0.0 **** 0.06
7421 C 71.12652959540664 55.79742748091421 0.2788312937581132 C 0.0 **** -0.24
7422 H 72.07950136273385 56.041261445487635 -0.1908044243086735 H 0.0 **** 0.06
7423 H 71.05624799069408 56.30301285420214 1.2420497702308921 H 0.0 **** 0.06
7424 H 71.06108958604244 54.71891143032346 0.4283896650428858 H 0.0 **** 0.06
7425 H 70.31018999048199 56.12489495735598 -0.365028630474157 H 0.0 **** 0.06
7426 C 9.927388535276123 35.88380026248234 142.6636866436619 C 0.0 **** -0.24
7427 H 10.510468165744527 36.45183741693063 143.38955777188457 H 0.0 **** 0.06
7428 H 10.390757013147379 34.9093097159399 142.5096907902975 H 0.0 **** 0.06
7429 H 9.898504731895997 36.42622528743871 141.71813137838774 H 0.0 **** 0.06
7430 H 8.912232823058787 35.75063726755357 143.03680909886916 H 0.0 **** 0.06
7431 C 104.18795744236365 51.78290561583238 12.087025091883483 C 0.0 **** -0.24
7432 H 103.67916398209772 52.08434649481575 11.170774275812867 H 0.0 **** 0.06
7433 H 105.11439650274963 52.34751963576667 12.19045409191834 H 0.0 **** 0.06
7434 H 104.41434579201834 50.71707148980619 12.042439476045374 H 0.0 **** 0.06
7435 H 103.54193535184345 51.981512350481594 12.942516029315385 H 0.0 **** 0.06
7436 C 119.99456710755219 127.00857553416927 142.50539366260767 C 0.0 **** -0.24
7437 H 120.30815864357776 127.97018556425324 142.9123007982522 H 0.0 **** 0.06
7438 H 119.47720199874341 126.44005138677497 143.27784658103184 H 0.0 **** 0.06
7439 H 120.87093531767336 126.45337597513173 142.1698491210622 H 0.0 **** 0.06
7440 H 119.32378982742027 127.17266093459614 141.66247807585813 H 0.0 **** 0.06
7441 C 117.67401284103661 88.18128049167068 31.01463514768725 C 0.0 **** -0.24
7442 H 116.9699080007588 89.01195353341332 31.065395163502018 H 0.0 **** 0.06
7443 H 118.5530623296091 88.41313744447227 31.615194224882664 H 0.0 **** 0.06
7444 H 117.97251084336287 88.0203693643232 29.97888110640112 H 0.0 **** 0.06
7445 H 117.19792662142979 87.27833935514201 31.399583457404482 H 0.0 **** 0.06
7446 C 47.74001088361236 70.20319346134795 68.63892102674156 C 0.0 **** -0.24
7447 H 46.89099616945316 69.86407519359642 69.23090297916606 H 0.0 **** 0.06
7448 H 48.65896745077714 70.06687332730883 69.21017106081578 H 0.0 **** 0.06
7449 H 47.615648065958766 71.25909828615704 68.39691105824885 H 0.0 **** 0.06
7450 H 47.79592726260586 69.62344118112736 67.71719515652897 H 0.0 **** 0.06
7451 C 14.712945312539233 3.708669891687638 23.237376369214502 C 0.0 **** -0.24
7452 H 15.475921668560403 2.969606144418254 23.481789448507556 H 0.0 **** 0.06
7453 H 14.151326775945108 3.3770521733273107 22.3643081106095 H 0.0 **** 0.06
7454 H 15.190000458853405 4.664614294935724 23.021597371166294 H 0.0 **** 0.06
7455 H 14.035952474383038 3.824369187475156 24.084059478314757 H 0.0 **** 0.06
7456 C 24.32571132619959 70.45783194289729 79.38115524051913 C 0.0 **** -0.24
7457 H 24.676600092621946 69.61917831307952 79.98206374874515 H 0.0 **** 0.06
7458 H 24.990689192125444 71.31072017707791 79.52359495724254 H 0.0 **** 0.06
7459 H 23.31601731328559 70.72956067155056 79.69190187761797 H 0.0 **** 0.06
7460 H 24.318557776039526 70.17316624286468 78.3293743086788 H 0.0 **** 0.06
7461 C 0.9113660450503005 119.60567365776784 62.74966240224444 C 0.0 **** -0.24
7462 H 1.457837793596667 120.32971591384059 63.354890774446574 H 0.0 **** 0.06
7463 H -0.15632844772127896 119.69434522226952 62.954847197556546 H 0.0 **** 0.06
7464 H 1.2467595736471537 118.59888626369705 62.99840366395591 H 0.0 **** 0.06
7465 H 1.0966796809909454 119.8008425572868 61.69404846027889 H 0.0 **** 0.06
7466 C 50.184428962623755 33.189158200599124 135.41230719050228 C 0.0 **** -0.24
7467 H 50.22280980548517 34.04871074460373 136.08178777209872 H 0.0 **** 0.06
7468 H 49.144053878671045 32.94560219231736 135.1934485207736 H 0.0 **** 0.06
7469 H 50.66450510250786 32.33523146238088 135.89088105947567 H 0.0 **** 0.06
7470 H 50.70495324560872 33.427754101021236 134.48587085776796 H 0.0 **** 0.06
7471 C 54.95450586346398 125.85540248745392 96.1052839617956 C 0.0 **** -0.24
7472 H 54.108741993904005 125.74252861570298 96.78318427951203 H 0.0 **** 0.06
7473 H 55.55095251030261 126.71591677227443 96.40792475117863 H 0.0 **** 0.06
7474 H 54.58753324410479 126.0058386021619 95.08965361607724 H 0.0 **** 0.06
7475 H 55.57043875533223 124.95608624776335 96.13979372799716 H 0.0 **** 0.06
7476 C 117.2448906233625 45.74091663681898 31.24409664507551 C 0.0 **** -0.24
7477 H 117.09690740607743 45.57259363563534 32.3109528887687 H 0.0 **** 0.06
7478 H 117.33682682467452 46.810401431075746 31.05468464113178 H 0.0 **** 0.06
7479 H 116.39155997083253 45.34561503785224 30.69292938828935 H 0.0 **** 0.06
7480 H 118.15404755428574 45.2340659463903 30.91954313728865 H 0.0 **** 0.06
7481 C 34.8769911148644 1.318161961753404 142.64988355277356 C 0.0 **** -0.24
7482 H 34.14683883373019 2.0885728128205265 142.40312934531525 H 0.0 **** 0.06
7483 H 35.07051994787246 1.3319792268753332 143.72201811865435 H 0.0 **** 0.06
7484 H 35.804177260505284 1.5111465278697516 142.10960331406386 H 0.0 **** 0.06
7485 H 34.48588768652315 0.3418489670186986 142.36257019232818 H 0.0 **** 0.06
7486 C 113.87370092242843 118.63864098075564 37.01575920622872 C 0.0 **** -0.24
7487 H 113.90105739351058 117.66767789398929 37.51131974495058 H 0.0 **** 0.06
7488 H 113.89686918723287 118.49402303214859 35.93498363327319 H 0.0 **** 0.06
7489 H 114.7373909211061 119.22729373079514 37.32265065161454 H 0.0 **** 0.06
7490 H 112.95889979514321 119.16157520144205 37.29324354912683 H 0.0 **** 0.06
7491 C 81.51042004472734 102.20927198223987 142.60994979548843 C 0.0 **** -0.24
7492 H 81.29275257696855 101.2174970022501 143.0067081256817 H 0.0 **** 0.06
7493 H 80.58509159297284 102.77880755941683 142.52904653549447 H 0.0 **** 0.06
7494 H 81.96676640190347 102.11446484495156 141.62463740619395 H 0.0 **** 0.06
7495 H 82.19778021620945 102.72526042455712 143.2805799721064 H 0.0 **** 0.06
7496 C 70.38965456063191 1.4843495564201845 24.670777599609238 C 0.0 **** -0.24
7497 H 70.39037332570089 1.6216984492256294 23.589191871503573 H 0.0 **** 0.06
7498 H 71.35561909385879 1.0915021434015983 24.98821472814683 H 0.0 **** 0.06
7499 H 69.602861166844 0.7826948474419098 24.947030568437242 H 0.0 **** 0.06
7500 H 70.20858311719253 2.443094396857756 25.15763835943642 H 0.0 **** 0.06
7501 C 56.91484387950385 75.40356575345052 17.392600361245 C 0.0 **** -0.24
7502 H 55.898397043754244 75.78871153483655 17.317938397961655 H 0.0 **** 0.06
7503 H 57.60210620530154 76.22788130362639 17.582219061955527 H 0.0 **** 0.06
7504 H 57.18677785164607 74.91119544471022 16.458959483539502 H 0.0 **** 0.06
7505 H 56.97219912932974 74.68666006789519 18.21226160396077 H 0.0 **** 0.06
7506 C 90.1326335003311 92.69712966819239 113.9335541125312 C 0.0 **** -0.24
7507 H 89.38162689159128 93.34661318918093 114.38462858385245 H 0.0 **** 0.06
7508 H 90.96165725697116 92.5621555329422 114.62923187538277 H 0.0 **** 0.06
7509 H 90.49971196477654 93.15100264458643 113.01364402468582 H 0.0 **** 0.06
7510 H 89.68589578627098 91.7290028881135 113.70820809393328 H 0.0 **** 0.06
7511 C 30.273629089163002 87.34007106369343 119.49417994484251 C 0.0 **** -0.24
7512 H 29.51850165234584 86.56240351374753 119.38361958450103 H 0.0 **** 0.06
7513 H 29.94107814478337 88.2447451906977 118.9847562422428 H 0.0 **** 0.06
7514 H 31.211955472066187 86.99991852136144 119.05609234791784 H 0.0 **** 0.06
7515 H 30.423013405898963 87.55212884997091 120.55315432800676 H 0.0 **** 0.06
7516 C 125.3235902193728 113.3235812074488 93.48127717687291 C 0.0 **** -0.24
7517 H 126.19157649836595 113.65385483039705 92.90894848235561 H 0.0 **** 0.06
7518 H 124.51187311221702 113.07409012406862 92.79754882725054 H 0.0 **** 0.06
7519 H 125.004083578404 114.1244837078184 94.14834809187063 H 0.0 **** 0.06
7520 H 125.58840612545742 112.44445104184967 94.06853655238926 H 0.0 **** 0.06
7521 C 122.08392860717741 52.08417146207739 99.28724910277245 C 0.0 **** -0.24
7522 H 122.97774752196159 51.9401709122655 99.89395617369338 H 0.0 **** 0.06
7523 H 121.72172735394311 51.117474374613835 98.93818626457377 H 0.0 **** 0.06
7524 H 122.32394725273976 52.71343814399853 98.42934616309776 H 0.0 **** 0.06
7525 H 121.31183711744647 52.5666344636025 99.88665471134306 H 0.0 **** 0.06
7526 C 36.6653231587033 124.84212600451039 74.8901800779928 C 0.0 **** -0.24
7527 H 35.63477066214586 124.51340960639826 75.02727498012064 H 0.0 **** 0.06
7528 H 37.343550480177676 124.06280978983779 75.23634592419694 H 0.0 **** 0.06
7529 H 36.83507449983823 125.75406588377686 75.46163785216709 H 0.0 **** 0.06
7530 H 36.84551378610291 125.03709262272844 73.83280584420194 H 0.0 **** 0.06
7531 C 96.00634419568308 121.52555313906915 115.12989397095572 C 0.0 **** -0.24
7532 H 95.70721337232658 122.54199704196638 114.87416865705171 H 0.0 **** 0.06
7533 H 95.47748515378106 121.20678166432556 116.02865912386034 H 0.0 **** 0.06
7534 H 97.08114405050253 121.49806317292631 115.31195855771824 H 0.0 **** 0.06
7535 H 95.76024135390247 120.85631560119596 114.30640423869858 H 0.0 **** 0.06
7536 C 114.51238663551189 117.60011512302948 69.01833729148967 C 0.0 **** -0.24
7537 H 115.54849467132235 117.54715244940233 68.6855040808621 H 0.0 **** 0.06
7538 H 114.34067704255531 116.84902428196249 69.79000710687416 H 0.0 **** 0.06
7539 H 113.84854764162108 117.41287994490561 68.17523907239124 H 0.0 **** 0.06
7540 H 114.3129217105487 118.59093304789751 69.42552821147777 H 0.0 **** 0.06
7541 C 118.07887310914677 60.91736086013094 27.08629024210802 C 0.0 **** -0.24
7542 H 117.84175604355985 59.86092877936892 27.215223120283724 H 0.0 **** 0.06
7543 H 119.00386435460567 61.14946865477526 27.612928645923205 H 0.0 **** 0.06
7544 H 117.26730644498079 61.52264014223357 27.490445468834025 H 0.0 **** 0.06
7545 H 118.20006423538277 61.1342402837833 26.025130542048572 H 0.0 **** 0.06
7546 C 78.87342745695884 86.19634226492984 37.486617851951586 C 0.0 **** -0.24
7547 H 79.94129590559301 86.35537397849683 37.333086633234444 H 0.0 **** 0.06
7548 H 78.61093263518138 85.1828899053043 37.17954819389917 H 0.0 **** 0.06
7549 H 78.3092656111973 86.91442447280004 36.89143951449508 H 0.0 **** 0.06
7550 H 78.6344139326512 86.32975932353331 38.54160093806934 H 0.0 **** 0.06
7551 C 20.10138608893513 55.25209971304031 38.410359125546165 C 0.0 **** -0.24
7552 H 21.05148229413203 55.63473842046409 38.039863996228746 H 0.0 **** 0.06
7553 H 20.17946945597248 54.176242306001654 38.56814613288347 H 0.0 **** 0.06
7554 H 19.317356069205886 55.457363694043465 37.68175120260602 H 0.0 **** 0.06
7555 H 19.85673305917939 55.741282804375146 39.35373377999767 H 0.0 **** 0.06
7556 C 125.07340470227658 40.301735575276865 105.69642370383919 C 0.0 **** -0.24
7557 H 124.04483987170639 40.065491757976076 105.96921693617234 H 0.0 **** 0.06
7558 H 125.2041107639624 40.16555736838089 104.62302149332608 H 0.0 **** 0.06
7559 H 125.75240315401683 39.638849882235206 106.23241208159179 H 0.0 **** 0.06
7560 H 125.29077217944459 41.33572814845485 105.96124924239011 H 0.0 **** 0.06
7561 C 63.60420478612565 140.61912604233578 17.830568624363707 C 0.0 **** -0.24
7562 H 64.32201308396057 139.84877776128985 17.5515675472094 H 0.0 **** 0.06
7563 H 62.95794498054886 140.83898269591572 16.979164881599047 H 0.0 **** 0.06
7564 H 64.13701970886927 141.52306686717324 18.125961830974518 H 0.0 **** 0.06
7565 H 62.99789877542992 140.26565813011595 18.664472902973216 H 0.0 **** 0.06
7566 C 113.00998976682058 9.76637138224126 130.92803115516696 C 0.0 **** -0.24
7567 H 112.22014052877932 10.24381532904178 130.34728818463444 H 0.0 **** 0.06
7568 H 113.03837585436452 8.701546398683206 130.69647146844179 H 0.0 **** 0.06
7569 H 112.81126442145592 9.902054815096307 131.99062613532695 H 0.0 **** 0.06
7570 H 113.96875201822104 10.218833201561552 130.67656325740117 H 0.0 **** 0.06
7571 C 135.1908565377916 138.71674339591382 47.24792753515155 C 0.0 **** -0.24
7572 H 136.16568961038976 138.26403813163023 47.42892288384925 H 0.0 **** 0.06
7573 H 134.42006146391762 138.13513638031486 47.753750761508826 H 0.0 **** 0.06
7574 H 134.99186896972788 138.73212663592713 46.17686957600034 H 0.0 **** 0.06
7575 H 135.18805204142188 139.73679967173902 47.633465174891256 H 0.0 **** 0.06
7576 C 3.84611880472562 14.388451575200094 39.55571557940331 C 0.0 **** -0.24
7577 H 3.9839685796582387 13.370507258939796 39.192409006706015 H 0.0 **** 0.06
7578 H 3.8980022297319863 15.083548119124572 38.716622091736866 H 0.0 **** 0.06
7579 H 4.630103312219006 14.626829508093891 40.2745077261479 H 0.0 **** 0.06
7580 H 2.872521927271265 14.47310999296883 40.03792709562359 H 0.0 **** 0.06
7581 C 55.114970044100346 47.570662183327215 37.53303208200617 C 0.0 **** -0.24
7582 H 54.46769872039357 47.99187558240911 36.763855900331066 H 0.0 **** 0.06
7583 H 56.017257542352525 47.17107521906988 37.0700888617269 H 0.0 **** 0.06
7584 H 54.5871655417933 46.77054829171128 38.05271573196546 H 0.0 **** 0.06
7585 H 55.3854327546739 48.349826408521636 38.24583355426904 H 0.0 **** 0.06
7586 C 8.466307000757268 29.744289289058827 124.95407981828063 C 0.0 **** -0.24
7587 H 9.175629079460975 30.25469514570881 125.60540610884415 H 0.0 **** 0.06
7588 H 8.04613990990191 28.884776150605717 125.47811679819554 H 0.0 **** 0.06
7589 H 8.978490934935621 29.406651960923853 124.05313723107884 H 0.0 **** 0.06
7590 H 7.664422540732801 30.430447468330044 124.68119491441925 H 0.0 **** 0.06
7591 C 34.65604382819916 77.80775416681035 12.23200473684571 C 0.0 **** -0.24
7592 H 35.24137483068367 77.1905422345861 12.914428355616309 H 0.0 **** 0.06
7593 H 34.28244571828728 78.68259605974166 12.764659441851819 H 0.0 **** 0.06
7594 H 33.816281279324954 77.22848504404158 11.848114072246062 H 0.0 **** 0.06
7595 H 35.28530274078955 78.12914329049909 11.402668193061544 H 0.0 **** 0.06
7596 C 59.24357249392321 39.28245325824304 91.63990745725289 C 0.0 **** -0.24
7597 H 59.13913780003831 39.409943441013894 92.71731431562785 H 0.0 **** 0.06
7598 H 58.29856009145948 38.93383581868113 91.22280872053557 H 0.0 **** 0.06
7599 H 60.02332755824986 38.5509003755534 91.43455606090401 H 0.0 **** 0.06
7600 H 59.5109092799226 40.236592294511 91.1861017443133 H 0.0 **** 0.06
7601 C 132.54836287104382 67.91334069774365 47.633002425079326 C 0.0 **** -0.24
7602 H 133.17590820871004 68.78222463960901 47.432292477987545 H 0.0 **** 0.06
7603 H 131.57344480661936 68.24348808658385 47.99119001672497 H 0.0 **** 0.06
7604 H 133.0230637433556 67.29145580610424 48.39161836017328 H 0.0 **** 0.06
7605 H 132.42370698869703 67.33708309349021 46.71664553670675 H 0.0 **** 0.06
7606 C 24.546070900412268 108.82817514568019 126.91446310187251 C 0.0 **** -0.24
7607 H 24.562810923497246 109.07947524080008 125.85492648589934 H 0.0 **** 0.06
7608 H 25.285690213937066 108.05145736894455 127.11540781196801 H 0.0 **** 0.06
7609 H 23.55500647444005 108.46467208835249 127.18687041971657 H 0.0 **** 0.06
7610 H 24.781084378582413 109.71511419419143 127.50264221963243 H 0.0 **** 0.06
7611 C 57.29416729995884 85.58270700661248 37.450798705868976 C 0.0 **** -0.24
7612 H 57.54643444569933 84.81646718249249 38.18362044537139 H 0.0 **** 0.06
7613 H 57.120859364933324 85.11448067725533 36.48071960720608 H 0.0 **** 0.06
7614 H 58.11803343676573 86.29210293486261 37.370009347125915 H 0.0 **** 0.06
7615 H 56.392987528838546 86.10619963525147 37.76794902575614 H 0.0 **** 0.06
7616 C 129.95845531212478 133.32979425244588 68.33485592216476 C 0.0 **** -0.24
7617 H 129.21324867063444 134.08250719606806 68.59145710529722 H 0.0 **** 0.06
7618 H 130.9249305723094 133.62101965325044 68.7457089562941 H 0.0 **** 0.06
7619 H 130.03348626684635 133.24820478009784 67.25033924363518 H 0.0 **** 0.06
7620 H 129.6613926349867 132.36669934011832 68.75099038342174 H 0.0 **** 0.06
7621 C 100.13787079036027 20.000474558335547 46.160984742943725 C 0.0 **** -0.24
7622 H 100.55874965603927 19.50145865242645 47.03445486054041 H 0.0 **** 0.06
7623 H 100.14636888865782 19.314749378695367 45.31217983433004 H 0.0 **** 0.06
7624 H 100.73329888857037 20.880772423944066 45.92333405496055 H 0.0 **** 0.06
7625 H 99.11201362877307 20.30133952492745 46.373670553175444 H 0.0 **** 0.06
7626 C 54.851775967945755 136.84208225195323 93.17487588346452 C 0.0 **** -0.24
7627 H 53.83790501675696 136.52060649232214 92.93612929285408 H 0.0 **** 0.06
7628 H 54.83546741652388 137.88299727804116 93.4991070829229 H 0.0 **** 0.06
7629 H 55.4809248662832 136.74602034315444 92.29038188205678 H 0.0 **** 0.06
7630 H 55.25175041308445 136.2178141595138 93.97418728065267 H 0.0 **** 0.06
7631 C 102.35923539265775 63.4472312132562 35.91730670550518 C 0.0 **** -0.24
7632 H 103.17535305072107 63.79643877091772 35.285467400359735 H 0.0 **** 0.06
7633 H 102.76676088050317 62.985808156886804 36.817131500202954 H 0.0 **** 0.06
7634 H 101.76387046126132 62.7157018152168 35.37081311804439 H 0.0 **** 0.06
7635 H 101.72863125339182 64.29286326074514 36.19598547636407 H 0.0 **** 0.06
7636 C 140.35726940822167 85.98619176200987 113.32130378051211 C 0.0 **** -0.24
7637 H 139.90997488016643 86.26908273186575 112.36884844589038 H 0.0 **** 0.06
7638 H 140.7682076503733 84.98000983928915 113.2453528122221 H 0.0 **** 0.06
7639 H 139.59553181975215 86.00957347976563 114.10100312325501 H 0.0 **** 0.06
7640 H 141.15355502302145 86.68725259015116 113.57064654663687 H 0.0 **** 0.06
7641 C 96.43984655881081 93.59026316540458 101.70124588334562 C 0.0 **** -0.24
7642 H 96.59741685262836 92.94151314699653 102.56241304371821 H 0.0 **** 0.06
7643 H 95.46249639401174 93.38334897174357 101.26419770623119 H 0.0 **** 0.06
7644 H 97.216457048624 93.40479899673198 100.95921348040832 H 0.0 **** 0.06
7645 H 96.4834988462905 94.63267315630348 102.01880664984697 H 0.0 **** 0.06
7646 C 109.79261793730348 40.309841421714026 111.6250675534509 C 0.0 **** -0.24
7647 H 109.10609153250812 41.14221521326536 111.77677853798856 H 0.0 **** 0.06
7648 H 110.7425736632639 40.68712331803482 111.24436891259425 H 0.0 **** 0.06
7649 H 109.36428631047062 39.61202492535301 110.90521126681377 H 0.0 **** 0.06
7650 H 109.95817553146617 39.79845868124974 112.57274430456589 H 0.0 **** 0.06
7651 C 76.65069303501164 6.575605167788808 131.71997042229532 C 0.0 **** -0.24
7652 H 77.07540269607141 6.660504844937861 130.71927732095352 H 0.0 **** 0.06
7653 H 77.3000824874249 5.957130439801631 132.33855363595148 H 0.0 **** 0.06
7654 H 75.66372479663097 6.118259063631001 131.6570967749221 H 0.0 **** 0.06
7655 H 76.56298586522036 7.568058571720428 132.16174137809676 H 0.0 **** 0.06
7656 C 79.40240625120352 29.485469167563586 77.68730498611563 C 0.0 **** -0.24
7657 H 78.6825347755151 28.682295904888285 77.52774717902662 H 0.0 **** 0.06
7658 H 78.89936628754228 30.44823146291492 77.58942487132839 H 0.0 **** 0.06
7659 H 80.19725765477311 29.41391786132889 76.94481892076425 H 0.0 **** 0.06
7660 H 79.82875110287632 29.397481989333315 78.6862014700173 H 0.0 **** 0.06
7661 C 9.423417716538438 60.083053520441155 132.04979572948025 C 0.0 **** -0.24
7662 H 9.607963197223057 59.516642566733964 131.13706658730555 H 0.0 **** 0.06
7663 H 8.78318835316037 59.50118457804274 132.71428942861937 H 0.0 **** 0.06
7664 H 8.93080792915083 61.02308335530046 131.80033747061145 H 0.0 **** 0.06
7665 H 10.37104029701726 60.28923606768649 132.5469647953092 H 0.0 **** 0.06
7666 C 23.45040888612303 119.98759155578098 32.58142126964631 C 0.0 **** -0.24
7667 H 23.785560354738408 118.98518043117993 32.31481982103929 H 0.0 **** 0.06
7668 H 24.316706651723308 120.63503621668254 32.72020716386489 H 0.0 **** 0.06
7669 H 22.877698464529374 119.94370326697761 33.50826404219735 H 0.0 **** 0.06
7670 H 22.82282057887531 120.38567691566699 31.78441509934973 H 0.0 **** 0.06
7671 C 71.07974858064432 94.35098268378162 115.10672536176884 C 0.0 **** -0.24
7672 H 70.57675022411433 94.22149180855494 114.14742053656266 H 0.0 **** 0.06
7673 H 71.83802851011578 93.57748461737849 115.22545680206412 H 0.0 **** 0.06
7674 H 70.34982957676911 94.2726477321652 115.91224616569764 H 0.0 **** 0.06
7675 H 71.55197969748161 95.3332936229217 115.13842590170856 H 0.0 **** 0.06
7676 C 72.45503148269219 78.54220518526535 15.450080087101625 C 0.0 **** -0.24
7677 H 71.72193490810238 78.12381644981988 14.761241843620759 H 0.0 **** 0.06
7678 H 72.80711376597418 79.50026507234818 15.067763188684388 H 0.0 **** 0.06
7679 H 73.29689903522356 77.85666608406251 15.544822066867745 H 0.0 **** 0.06
7680 H 71.99333298753189 78.68814122278246 16.427023331590405 H 0.0 **** 0.06
7681 C 38.80813824357144 96.22853677007345 141.82779307712576 C 0.0 **** -0.24
7682 H 39.36604901660005 95.85684126915544 142.68712008705083 H 0.0 **** 0.06
7683 H 37.95792014082565 96.81663822490376 142.17368144760326 H 0.0 **** 0.06
7684 H 38.45241703567031 95.38687026894601 141.23471824430112 H 0.0 **** 0.06
7685 H 39.458799404307534 96.85473295698343 141.2167453547935 H 0.0 **** 0.06
7686 C 68.6468058329715 47.61013777217684 58.6244295119549 C 0.0 **** -0.24
7687 H 67.6534803876479 47.16208406110397 58.589353120593216 H 0.0 **** 0.06
7688 H 69.38562959367414 46.88126091449601 58.28858586906372 H 0.0 **** 0.06
7689 H 68.87230235306845 47.91256720589054 59.647089110907444 H 0.0 **** 0.06
7690 H 68.67431386813692 48.483002894439196 57.97297679962935 H 0.0 **** 0.06
7691 C 27.179393586932974 60.87823721372854 143.8327236258071 C 0.0 **** -0.24
7692 H 27.44975480010325 61.10841850216717 144.86355936026476 H 0.0 **** 0.06
7693 H 27.792391735405772 61.47293508165285 143.15476444255944 H 0.0 **** 0.06
7694 H 26.127033904368204 61.11325148940773 143.6725197047396 H 0.0 **** 0.06
7695 H 27.34822080775325 59.81953261721853 143.64079718183197 H 0.0 **** 0.06
7696 C 136.8416628669823 30.60046951145938 105.80531834663857 C 0.0 **** -0.24
7697 H 137.6454136477674 29.910140636327554 105.54962983274699 H 0.0 **** 0.06
7698 H 136.5103822164825 30.41000843988479 106.82681120857158 H 0.0 **** 0.06
7699 H 136.00654542909012 30.454938848650585 105.11983194666352 H 0.0 **** 0.06
7700 H 137.20289296282053 31.625075696140442 105.7247713206345 H 0.0 **** 0.06
7701 C 120.70786854138854 94.8146532898065 108.62973758745439 C 0.0 **** -0.24
7702 H 120.4619171665008 93.7554829493154 108.56089746491965 H 0.0 **** 0.06
7703 H 120.65319644986286 95.26599724828574 107.63891797520274 H 0.0 **** 0.06
7704 H 121.71766179525278 94.92877638190512 109.02465963737801 H 0.0 **** 0.06
7705 H 119.9999271202611 95.3102111340586 109.29470322579583 H 0.0 **** 0.06
7706 C 32.7061307605777 27.81715546668829 33.7795287164642 C 0.0 **** -0.24
7707 H 33.43734837164001 27.59353694849665 33.00380171083236 H 0.0 **** 0.06
7708 H 31.989396669538664 26.99872431443515 33.849704238496315 H 0.0 **** 0.06
7709 H 32.18253162481274 28.74028017850219 33.530158258517474 H 0.0 **** 0.06
7710 H 33.216448168403126 27.93683076048194 34.7361806612883 H 0.0 **** 0.06
7711 C 3.0527298992953718 90.45872904031965 87.07654169554937 C 0.0 **** -0.24
7712 H 2.6560866061727424 91.35216079004746 86.59504748832002 H 0.0 **** 0.06
7713 H 2.7944297956190063 89.58139568501572 86.4836453047111 H 0.0 **** 0.06
7714 H 2.6223829986090443 90.3628806594316 88.07429096636547 H 0.0 **** 0.06
7715 H 4.137095949793103 90.53884735841135 87.15460084872944 H 0.0 **** 0.06
7716 C 118.30147941905321 38.94904401563542 44.878192580444775 C 0.0 **** -0.24
7717 H 119.30152488069578 39.176409476319805 45.246485790822305 H 0.0 **** 0.06
7718 H 117.74866534171852 39.877086250153525 44.73069639091584 H 0.0 **** 0.06
7719 H 117.77926814120522 38.32716249798659 45.606365447625265 H 0.0 **** 0.06
7720 H 118.37562329748127 38.414877824026235 43.93143441636626 H 0.0 **** 0.06
7721 C 118.12336465047456 24.51769413529371 79.37250499649289 C 0.0 **** -0.24
7722 H 118.86847939017359 23.77471922744121 79.65522246188104 H 0.0 **** 0.06
7723 H 118.39132147843954 25.48314724905191 79.80268909350323 H 0.0 **** 0.06
7724 H 117.14611043527931 24.21149219316999 79.74585264824859 H 0.0 **** 0.06
7725 H 118.08754729800599 24.601417871511615 78.28625578233854 H 0.0 **** 0.06
7726 C 82.11794728858935 89.7510207034585 93.96374615770475 C 0.0 **** -0.24
7727 H 83.09223548685132 89.8870908608873 93.4949463174446 H 0.0 **** 0.06
7728 H 81.47158167391429 90.59126459849972 93.70878024592847 H 0.0 **** 0.06
7729 H 82.23878734069767 89.70035500085135 95.04540022578107 H 0.0 **** 0.06
7730 H 81.66913326347165 88.82430799656629 93.60492800802069 H 0.0 **** 0.06
7731 C 127.71168408473319 86.46628452019947 100.44308009461095 C 0.0 **** -0.24
7732 H 127.30113174178183 85.5546670353576 100.01111001664125 H 0.0 **** 0.06
7733 H 128.78595092387474 86.34768374548848 100.586263660215 H 0.0 **** 0.06
7734 H 127.23612047270231 86.65947488252145 101.40449239841148 H 0.0 **** 0.06
7735 H 127.52520205950526 87.3037748912206 99.77042026045444 H 0.0 **** 0.06
7736 C 143.64703063120623 44.241334888759866 58.10636446742909 C 0.0 **** -0.24
7737 H 144.40326003893898 44.917940317295916 57.7084812327698 H 0.0 **** 0.06
7738 H 142.93938910252388 44.80502081271595 58.71385398829284 H 0.0 **** 0.06
7739 H 144.12840939324047 43.47965803370175 58.72023642407407 H 0.0 **** 0.06
7740 H 143.11867725823134 43.76360532363145 57.281269275936936 H 0.0 **** 0.06
7741 C 132.63318937095647 31.683511014885184 64.58601920892742 C 0.0 **** -0.24
7742 H 132.21426518574413 31.24222377005926 63.68148341374723 H 0.0 **** 0.06
7743 H 131.86304715437825 32.26233105553226 65.09821187544769 H 0.0 **** 0.06
7744 H 133.46313612928535 32.338737600663634 64.3201650627364 H 0.0 **** 0.06
7745 H 132.990835027349 30.89186657809205 65.24498096721605 H 0.0 **** 0.06
7746 C 37.7813935207553 69.86577593251539 36.527116971616294 C 0.0 **** -0.24
7747 H 38.85062016998239 70.07747098830411 36.56059113290286 H 0.0 **** 0.06
7748 H 37.29346974606872 70.31976869927287 37.38950600514164 H 0.0 **** 0.06
7749 H 37.623885652505066 68.78813448674346 36.54506159992383 H 0.0 **** 0.06
7750 H 37.35901263580379 70.27924436347615 35.61113981415082 H 0.0 **** 0.06
7751 C 29.858661110421252 112.62985998883892 140.5689306594166 C 0.0 **** -0.24
7752 H 30.771333535244672 113.1824724645075 140.34558026429227 H 0.0 **** 0.06
7753 H 29.097759969062466 112.87100670322212 139.82603722734297 H 0.0 **** 0.06
7754 H 29.500865739045665 112.90601536580266 141.56036927996155 H 0.0 **** 0.06
7755 H 30.066385099219232 111.56067830136953 140.54159727447643 H 0.0 **** 0.06
7756 C 16.68233079420827 56.61368022465973 79.50511550591386 C 0.0 **** -0.24
7757 H 16.5018708423506 56.64582742775187 78.42971476843135 H 0.0 **** 0.06
7758 H 17.330539949548978 57.44253697490362 79.78887289739498 H 0.0 **** 0.06
7759 H 17.161903555422356 55.67070594787879 79.76437850450291 H 0.0 **** 0.06
7760 H 15.732556295385251 56.697080652691454 80.03434297154776 H 0.0 **** 0.06
7761 C 76.14928002721146 53.54973988505719 8.086654861827665 C 0.0 **** -0.24
7762 H 75.55627352424364 52.647980978226315 8.237432957442316 H 0.0 **** 0.06
7763 H 75.85864909839387 54.303056928095316 8.819194971748374 H 0.0 **** 0.06
7764 H 75.97709574443181 53.934824481286626 7.081560177162398 H 0.0 **** 0.06
7765 H 77.20608487833621 53.31323765669924 8.208548579136533 H 0.0 **** 0.06
7766 C 23.08588125995609 90.4286011135121 38.38941464229242 C 0.0 **** -0.24
7767 H 22.840796212377413 89.58548420113961 37.74285751030297 H 0.0 **** 0.06
7768 H 23.195250275752286 91.32886210048571 37.785485483318325 H 0.0 **** 0.06
7769 H 24.021593348867775 90.22483989549205 38.91225902766388 H 0.0 **** 0.06
7770 H 22.287276069937782 90.57174690086208 39.11693090048689 H 0.0 **** 0.06
7771 C 122.13946775769479 56.83424604630979 14.215499894780528 C 0.0 **** -0.24
7772 H 121.81908655227706 56.05066159684789 14.902779480897593 H 0.0 **** 0.06
7773 H 121.43877299102483 57.66803515681033 14.264290052536829 H 0.0 **** 0.06
7774 H 122.16526303408445 56.43894234669291 13.200790863555959 H 0.0 **** 0.06
7775 H 123.13456878790561 57.17873113028256 14.497070252447017 H 0.0 **** 0.06
7776 C 23.7926134873276 23.496767874502467 49.186127544209995 C 0.0 **** -0.24
7777 H 23.02039165751883 23.101168200841073 48.52682775355338 H 0.0 **** 0.06
7778 H 24.74144916377682 23.537838862081173 48.6506791762305 H 0.0 **** 0.06
7779 H 23.893755075990754 22.847892193178865 50.05713426354933 H 0.0 **** 0.06
7780 H 23.5140553547149 24.499115493927604 49.51098212850174 H 0.0 **** 0.06
7781 C 82.34650103056953 5.825849968190653 126.98710906237287 C 0.0 **** -0.24
7782 H 83.38865646439004 5.54436268042565 126.84347842108832 H 0.0 **** 0.06
7783 H 81.87831816330029 5.138326554632556 127.69200783809386 H 0.0 **** 0.06
7784 H 81.82238534110243 5.778814303521756 126.03184085633904 H 0.0 **** 0.06
7785 H 82.29502738932493 6.841704472389495 127.37994748108362 H 0.0 **** 0.06
7786 C 111.82948966772115 8.248954027943086 12.0994456184619 C 0.0 **** -0.24
7787 H 111.08587978657961 9.018580985521737 12.305512529067315 H 0.0 **** 0.06
7788 H 111.62265205311418 7.7940360811577705 11.12977668436531 H 0.0 **** 0.06
7789 H 111.78501303528053 7.485113710553577 12.876467975155471 H 0.0 **** 0.06
7790 H 112.82325066071029 8.69683909203718 12.086332086789454 H 0.0 **** 0.06
7791 C 100.84103582058704 27.470856732030313 81.25588011455768 C 0.0 **** -0.24
7792 H 101.79201023026415 27.97552619481661 81.42146462541331 H 0.0 **** 0.06
7793 H 100.03887167975077 28.045599115413836 81.71887232048404 H 0.0 **** 0.06
7794 H 100.87602136141386 26.475427190124776 81.6973117466542 H 0.0 **** 0.06
7795 H 100.65685882240629 27.386648236572398 80.18452877639211 H 0.0 **** 0.06
7796 C 73.87834201736206 94.34131800770729 109.7793395060265 C 0.0 **** -0.24
7797 H 74.95034225194433 94.2475166076547 109.60934351338219 H 0.0 **** 0.06
7798 H 73.64106937961233 95.37400612953167 110.03941244651227 H 0.0 **** 0.06
7799 H 73.58109011068714 93.68363397072895 110.59558142277027 H 0.0 **** 0.06
7800 H 73.34098451405495 94.06202810319269 108.87359289855218 H 0.0 **** 0.06
7801 C 80.73971605799582 40.19596353809925 89.69847398624988 C 0.0 **** -0.24
7802 H 79.69725793223436 40.265146809822966 89.38756462595224 H 0.0 **** 0.06
7803 H 80.91835555056512 40.88426182297087 90.52558907660962 H 0.0 **** 0.06
7804 H 81.38658857307387 40.45633114728781 88.86111055044196 H 0.0 **** 0.06
7805 H 80.95434758476728 39.17649673244796 90.02137134387955 H 0.0 **** 0.06
7806 C 3.804150671677121 12.41905917804089 63.247363127623174 C 0.0 **** -0.24
7807 H 4.040214903474691 13.0628461640991 62.400497223553174 H 0.0 **** 0.06
7808 H 3.486842352539327 11.441857644264651 62.883086449447745 H 0.0 **** 0.06
7809 H 2.999923549549834 12.868000341453147 63.83140894999954 H 0.0 **** 0.06
7810 H 4.687905245976708 12.303733951341563 63.8743470282013 H 0.0 **** 0.06
7811 C 110.05922621690495 85.18067163961051 70.68503599657487 C 0.0 **** -0.24
7812 H 110.24985002169 85.41092301174706 69.63625154803432 H 0.0 **** 0.06
7813 H 109.05020194902902 85.49951248775484 70.94861233744506 H 0.0 **** 0.06
7814 H 110.78090746307335 85.70783631864104 71.30950016836563 H 0.0 **** 0.06
7815 H 110.15536548727327 84.10783695827024 70.84480389248773 H 0.0 **** 0.06
7816 C 127.50732443312508 90.62940805442258 8.846578994814827 C 0.0 **** -0.24
7817 H 126.99385004543831 89.71809465636665 8.538322791683136 H 0.0 **** 0.06
7818 H 127.43790566582874 90.73672426349356 9.928446410151743 H 0.0 **** 0.06
7819 H 127.04087645703416 91.48866758283424 8.364462561675317 H 0.0 **** 0.06
7820 H 128.5554930246441 90.57251524840132 8.551927106117823 H 0.0 **** 0.06
7821 C 38.15812255127001 101.6415175040411 0.6495772024557063 C 0.0 **** -0.24
7822 H 39.1826613070735 101.61578718228876 1.0208765282054806 H 0.0 **** 0.06
7823 H 37.46675118178869 101.65264421269062 1.4921878614276736 H 0.0 **** 0.06
7824 H 37.97219602068148 100.75860519076639 0.037952258187047505 H 0.0 **** 0.06
7825 H 38.01280407729957 102.53753479246771 0.04704968573578583 H 0.0 **** 0.06
7826 C 126.31543300622869 33.22670610883512 69.59046026822352 C 0.0 **** -0.24
7827 H 127.03257581529544 33.99090573880761 69.88829573498978 H 0.0 **** 0.06
7828 H 126.393220622401 33.05365807203813 68.51644145005963 H 0.0 **** 0.06
7829 H 125.30678650020579 33.561001078121734 69.83288342417399 H 0.0 **** 0.06
7830 H 126.52845830486567 32.30013383829876 70.12472612039358 H 0.0 **** 0.06
7831 C 118.46818773729089 42.54695870118891 45.89476827149221 C 0.0 **** -0.24
7832 H 118.50237138948953 43.5468111802854 46.32612583053526 H 0.0 **** 0.06
7833 H 118.16162647750505 42.61217493760225 44.85086744919397 H 0.0 **** 0.06
7834 H 117.75281832474789 41.936961380059984 46.44679978281235 H 0.0 **** 0.06
7835 H 119.45686196518446 42.09082735990384 45.95540996837025 H 0.0 **** 0.06
7836 C 12.403586823932358 56.86010042666824 121.51370268413444 C 0.0 **** -0.24
7837 H 12.374495952025711 55.78904940089329 121.31069685644803 H 0.0 **** 0.06
7838 H 12.938546805407952 57.03847500915444 122.44628951986226 H 0.0 **** 0.06
7839 H 11.38643273890284 57.241581823886875 121.59898677877186 H 0.0 **** 0.06
7840 H 12.915456204473571 57.370310268300216 120.69691714886733 H 0.0 **** 0.06
7841 C 84.37512483756637 32.72693811482708 5.986104427024571 C 0.0 **** -0.24
7842 H 84.29391836183322 33.45370368749252 5.178286270275578 H 0.0 **** 0.06
7843 H 85.32970236228192 32.85693880361748 6.496181357637909 H 0.0 **** 0.06
7844 H 84.31601599546576 31.719049572618758 5.57549546427262 H 0.0 **** 0.06
7845 H 83.56067897382451 32.878629794992946 6.693653305642698 H 0.0 **** 0.06
7846 C 31.384958475272242 14.521266934052818 55.49688736058661 C 0.0 **** -0.24
7847 H 31.261169461195408 14.069457679705181 56.48088002132759 H 0.0 **** 0.06
7848 H 30.806211522968653 13.95854568569095 54.764126364445985 H 0.0 **** 0.06
7849 H 32.43881282559417 14.502581442866898 55.21863429338892 H 0.0 **** 0.06
7850 H 31.034570673177342 15.552223372048985 55.52373939182357 H 0.0 **** 0.06
7851 C 31.505743770897766 1.823516516014081 71.590385293672 C 0.0 **** -0.24
7852 H 32.0580787474577 1.0079090267427375 71.12409099086547 H 0.0 **** 0.06
7853 H 31.392495261200793 2.6397631130975867 70.8769974888906 H 0.0 **** 0.06
7854 H 32.049877257450916 2.177530285056804 72.46560290458143 H 0.0 **** 0.06
7855 H 30.52098015157725 1.4672508195916123 71.89472279811679 H 0.0 **** 0.06
7856 C 140.0107149057975 28.58007053011667 19.591446366105004 C 0.0 **** -0.24
7857 H 141.07736994784324 28.785997200918025 19.512890357236103 H 0.0 **** 0.06
7858 H 139.86199632215374 27.534675654856343 19.8645146663778 H 0.0 **** 0.06
7859 H 139.53060158515808 28.77712580172536 18.633288610160776 H 0.0 **** 0.06
7860 H 139.57225103517578 29.22091357064008 20.35615252580081 H 0.0 **** 0.06
7861 C 22.649602553038854 131.44971424033147 83.49135671294735 C 0.0 **** -0.24
7862 H 21.971076239829358 131.30631298322766 84.33288155683297 H 0.0 **** 0.06
7863 H 22.96507148544198 132.49235543095136 83.45159993890505 H 0.0 **** 0.06
7864 H 22.138098676732774 131.18800983479522 82.5647972121794 H 0.0 **** 0.06
7865 H 23.523009178582598 130.8096393311561 83.61763770954846 H 0.0 **** 0.06
7866 C 60.22325377624023 46.208013299258255 119.16000592156341 C 0.0 **** -0.24
7867 H 60.41097632764507 45.544428279450784 120.0040841522058 H 0.0 **** 0.06
7868 H 59.36575918287812 46.84407181353632 119.38259869441832 H 0.0 **** 0.06
7869 H 60.01421212119496 45.61399235290335 118.27042029314497 H 0.0 **** 0.06
7870 H 61.10176223577551 46.82957162155108 118.98430141551749 H 0.0 **** 0.06
7871 C 114.21076835677445 29.410491993384717 65.8086806858683 C 0.0 **** -0.24
7872 H 115.04774311481111 30.067660876308345 66.04640583276773 H 0.0 **** 0.06
7873 H 114.55882826727083 28.59289193818492 65.17787935447697 H 0.0 **** 0.06
7874 H 113.44370482551415 29.97727855736553 65.27914078064637 H 0.0 **** 0.06
7875 H 113.79261201664326 29.007404447868808 66.73076071430833 H 0.0 **** 0.06
7876 C 96.76115756906665 36.09033968381857 67.78524676494592 C 0.0 **** -0.24
7877 H 96.11647043507472 36.96617158125519 67.71426882942174 H 0.0 **** 0.06
7878 H 97.40668649749816 36.0423272245696 66.90783686309155 H 0.0 **** 0.06
7879 H 96.14699628630783 35.19086722310636 67.83477588383144 H 0.0 **** 0.06
7880 H 97.37315405757536 36.16152092623364 68.68427035427831 H 0.0 **** 0.06
7881 C 0.014673157950852556 110.56738824674618 95.214585494913 C 0.0 **** -0.24
7882 H -0.4671074478728485 111.5329499664192 95.05999921079646 H 0.0 **** 0.06
7883 H -0.5877692950746223 109.78342912647098 94.75471581277128 H 0.0 **** 0.06
7884 H 0.10727239751062712 110.37590040078526 96.28368029268754 H 0.0 **** 0.06
7885 H 1.0053250169889623 110.57941084451282 94.76064472155682 H 0.0 **** 0.06
7886 C 4.884961012958428 138.77454459831162 143.6347976491717 C 0.0 **** -0.24
7887 H 5.320073682568818 139.4851589882984 144.3386300998632 H 0.0 **** 0.06
7888 H 5.463002554734487 137.84968422586127 143.64891266144053 H 0.0 **** 0.06
7889 H 4.904155366795749 139.20043802002937 142.6321400696843 H 0.0 **** 0.06
7890 H 3.8545395904634177 138.56453232497458 143.92165551657519 H 0.0 **** 0.06
7891 C 5.6455489619784345 106.99211638743746 103.91290955176379 C 0.0 **** -0.24
7892 H 4.611078663937732 107.01069418243382 104.25735839968385 H 0.0 **** 0.06
7893 H 6.034441744746147 108.00917861996278 103.87507212767713 H 0.0 **** 0.06
7894 H 5.688784261463102 106.54799334456108 102.91877409908247 H 0.0 **** 0.06
7895 H 6.246592534138809 106.39798811634405 104.60165634168132 H 0.0 **** 0.06
7896 C 9.516813489228213 75.00577999938251 87.98147003713528 C 0.0 **** -0.24
7897 H 9.26599588023268 76.04412821929004 88.19687516774083 H 0.0 **** 0.06
7898 H 8.599955282268041 74.42500912257324 87.87620298232548 H 0.0 **** 0.06
7899 H 10.113552636308384 74.59890136641336 88.79737017289744 H 0.0 **** 0.06
7900 H 10.086982062180397 74.95439441933121 87.0534472710248 H 0.0 **** 0.06
7901 C 77.02405751359187 125.74605441855353 24.5548282331132 C 0.0 **** -0.24
7902 H 77.85610448371266 125.95962808072396 23.88392062119516 H 0.0 **** 0.06
7903 H 76.14162964742054 126.29362964386864 24.22467174801932 H 0.0 **** 0.06
7904 H 77.28495645456306 126.05257763063881 25.567518776214456 H 0.0 **** 0.06
7905 H 76.81324094209347 124.67603912350961 24.541352270871926 H 0.0 **** 0.06
7906 C 98.57566310650188 142.46175243746183 77.86194875106925 C 0.0 **** -0.24
7907 H 98.03625165584302 143.27417170313893 78.34833963980405 H 0.0 **** 0.06
7908 H 97.8826932949365 141.649751642028 77.63831174870305 H 0.0 **** 0.06
7909 H 99.36001641866054 142.09783248945453 78.52479715161968 H 0.0 **** 0.06
7910 H 99.02172236047 142.82392535957223 76.93574693296348 H 0.0 **** 0.06
7911 C 4.671447613723547 140.5558631084316 65.81821038453097 C 0.0 **** -0.24
7912 H 4.516085331645996 140.33801574411206 64.76200020512695 H 0.0 **** 0.06
7913 H 5.024970030836187 139.65889054096786 66.32595340711019 H 0.0 **** 0.06
7914 H 3.7310096228592577 140.8801302750581 66.26446828456447 H 0.0 **** 0.06
7915 H 5.413422455885151 141.34861081881718 65.9207206671846 H 0.0 **** 0.06
7916 C 98.7929589262373 110.19427530160449 57.68954988045141 C 0.0 **** -0.24
7917 H 97.94627276606516 110.57177984298623 58.2627250332026 H 0.0 **** 0.06
7918 H 98.60794182523765 110.3446122931456 56.62576401199789 H 0.0 **** 0.06
7919 H 98.92179682428466 109.13043865797614 57.88971057001183 H 0.0 **** 0.06
7920 H 99.69621304315427 110.73089620169158 57.98120711225222 H 0.0 **** 0.06
7921 C 101.13256951014469 111.99547913110013 5.757268605884775 C 0.0 **** -0.24
7922 H 102.08966389942348 111.75573506429868 5.294271846884783 H 0.0 **** 0.06
7923 H 101.2896481106278 112.70780399814049 6.567275703014587 H 0.0 **** 0.06
7924 H 100.68264265112902 111.08527357432212 6.154796716619813 H 0.0 **** 0.06
7925 H 100.46771022713433 112.43294183901702 5.011956963494669 H 0.0 **** 0.06
7926 C 11.538390079022605 66.68262155391635 5.401591155337194 C 0.0 **** -0.24
7927 H 11.206650910426163 67.6665605294826 5.070458098750091 H 0.0 **** 0.06
7928 H 11.061967864817149 66.43854932214145 6.35107970968798 H 0.0 **** 0.06
7929 H 12.620887387378275 66.68756051965102 5.527293421151949 H 0.0 **** 0.06
7930 H 11.26323819541517 65.93677838988769 4.65483926968508 H 0.0 **** 0.06
7931 C 66.1516302806276 97.91166332354969 85.50050432216545 C 0.0 **** -0.24
7932 H 66.23214698285403 97.57849858331511 86.53585705010234 H 0.0 **** 0.06
7933 H 65.44030027709972 97.27711934736546 84.97044344806466 H 0.0 **** 0.06
7934 H 67.1271082441189 97.84487209788713 85.02019451508464 H 0.0 **** 0.06
7935 H 65.80521369856693 98.94460024361786 85.47764080692335 H 0.0 **** 0.06
7936 C 43.070418517482 140.06091092825528 19.6268637142706 C 0.0 **** -0.24
7937 H 43.18934098098889 139.80102766948264 18.575311049308958 H 0.0 **** 0.06
7938 H 43.59488573737124 140.9931086580992 19.83248313719585 H 0.0 **** 0.06
7939 H 43.485571764576065 139.26553359438128 20.24585367835644 H 0.0 **** 0.06
7940 H 42.01052632895464 140.18142659178156 19.85297532417765 H 0.0 **** 0.06
7941 C 27.5189850737381 121.04253882979354 144.75132674950174 C 0.0 **** -0.24
7942 H 28.525351754701113 120.82434618659862 145.1093895815114 H 0.0 **** 0.06
7943 H 27.202099760340708 120.26107081021566 144.06083611270944 H 0.0 **** 0.06
7944 H 27.517364367076475 122.00350941293631 144.23721995740922 H 0.0 **** 0.06
7945 H 26.832791776056474 121.08098194639327 145.59746254794055 H 0.0 **** 0.06
7946 C 119.73742192119481 62.80396001767687 118.40245665418348 C 0.0 **** -0.24
7947 H 120.14839688602963 61.81139088709253 118.58624181572475 H 0.0 **** 0.06
7948 H 120.24311275117226 63.529843490071784 119.03986382470202 H 0.0 **** 0.06
7949 H 118.67071532191365 62.8026231957748 118.62889248530377 H 0.0 **** 0.06
7950 H 119.88665871989072 63.07065025691031 117.35643439493037 H 0.0 **** 0.06
7951 C 134.17215774982992 116.65365854035421 48.234195409874275 C 0.0 **** -0.24
7952 H 133.8389837995719 115.94352951407687 47.477070057058356 H 0.0 **** 0.06
7953 H 133.5923535112531 117.57235070970923 48.14879862247568 H 0.0 **** 0.06
7954 H 135.22873206537227 116.87422151953704 48.084360314566126 H 0.0 **** 0.06
7955 H 134.02851539042916 116.22279806255939 49.2251419392518 H 0.0 **** 0.06
7956 C 97.13508615550236 100.25375909467546 79.17004611422561 C 0.0 **** -0.24
7957 H 97.12394444264791 99.98724043228883 80.22714761543833 H 0.0 **** 0.06
7958 H 97.86358649428087 101.04718281276988 79.00205810350647 H 0.0 **** 0.06
7959 H 96.1446215922927 100.60109115410809 78.87349535728225 H 0.0 **** 0.06
7960 H 97.40502995787925 99.37948548543687 78.57748058423385 H 0.0 **** 0.06
7961 C 3.6352544400346183 46.764686988175725 117.03944922281438 C 0.0 **** -0.24
7962 H 3.599990127913639 45.70727171081192 117.29992228712958 H 0.0 **** 0.06
7963 H 3.9822804947916346 46.87369718692838 116.01132148507325 H 0.0 **** 0.06
7964 H 4.320372882660543 47.281433759791895 117.71121880530622 H 0.0 **** 0.06
7965 H 2.639083764976853 47.195810275859316 117.13354252014013 H 0.0 **** 0.06
7966 C 58.63841083819233 49.35068668550666 35.50663344423278 C 0.0 **** -0.24
7967 H 59.479501818246376 48.858679941557455 35.994934802656076 H 0.0 **** 0.06
7968 H 57.704320712506444 48.94789929676806 35.90019655323423 H 0.0 **** 0.06
7969 H 58.68767716306695 49.17338916552532 34.43316046729104 H 0.0 **** 0.06
7970 H 58.68213281125787 50.422820515266 35.70069110983118 H 0.0 **** 0.06
7971 C 74.80433969781512 59.725341256067594 19.830165307913518 C 0.0 **** -0.24
7972 H 74.1892465784664 59.67715730824595 18.93080513556322 H 0.0 **** 0.06
7973 H 75.27476358863294 58.75687985331854 20.00005282861008 H 0.0 **** 0.06
7974 H 74.17625940505476 59.97945108436599 20.685108767836454 H 0.0 **** 0.06
7975 H 75.57269287932667 60.48676285326276 19.70403701596561 H 0.0 **** 0.06
7976 C 50.5481051477436 107.25206410311336 136.83980376182453 C 0.0 **** -0.24
7977 H 49.61046926653573 106.90744388784702 136.40358963723554 H 0.0 **** 0.06
7978 H 51.21507334050024 106.4023321109874 136.98564226958342 H 0.0 **** 0.06
7979 H 50.3472283976313 107.7265436765046 137.80137104970223 H 0.0 **** 0.06
7980 H 51.017363175761346 107.97263308188775 136.17012463176087 H 0.0 **** 0.06
7981 C 72.94492271483497 3.3073375658807436 73.6649305678664 C 0.0 **** -0.24
7982 H 73.56022238595637 2.8031730012606886 72.92017941912724 H 0.0 **** 0.06
7983 H 71.96531062830125 2.8308607891179918 73.70933733665873 H 0.0 **** 0.06
7984 H 72.82779719498484 4.355374693793976 73.39020768128614 H 0.0 **** 0.06
7985 H 73.42614337571858 3.2393916299992043 74.64128244129813 H 0.0 **** 0.06
7986 C 28.112726801016088 114.52148671514033 118.34152015422666 C 0.0 **** -0.24
7987 H 29.11986621780524 114.44907013095599 118.75048943708839 H 0.0 **** 0.06
7988 H 28.165823449167732 114.59481493062788 117.25423099522118 H 0.0 **** 0.06
7989 H 27.621023814739665 115.4077678462802 118.7414661354278 H 0.0 **** 0.06
7990 H 27.544036944821208 113.63362511039952 118.61754280845884 H 0.0 **** 0.06
7991 C 122.20938179457427 41.35378656928056 49.57200366862304 C 0.0 **** -0.24
7992 H 121.82678660773432 42.15407388902385 50.20627180623728 H 0.0 **** 0.06
7993 H 121.37423653434435 40.79222067990002 49.15256467301016 H 0.0 **** 0.06
7994 H 122.83408976762271 40.68726337077708 50.16605218542233 H 0.0 **** 0.06
7995 H 122.80146939198532 41.78304572887302 48.76453435521961 H 0.0 **** 0.06
7996 C 137.2522241894652 131.57166679993108 36.15644145038051 C 0.0 **** -0.24
7997 H 137.3054731392997 132.61183696263498 36.47885036170857 H 0.0 **** 0.06
7998 H 137.717251461471 130.93458966256932 36.909724476292865 H 0.0 **** 0.06
7999 H 137.7780516420998 131.4574312364895 35.2087919371757 H 0.0 **** 0.06
8000 H 136.20843848926035 131.2842399159407 36.03169340141034 H 0.0 **** 0.06
8001 C 38.987506633665035 140.3186581559458 99.74252007693393 C 0.0 **** -0.24
8002 H 38.17484035001546 141.01673376126658 99.94391735992674 H 0.0 **** 0.06
8003 H 38.66227715942746 139.30539984517537 99.98161283713128 H 0.0 **** 0.06
8004 H 39.849543901803926 140.57800494865302 100.35618108717537 H 0.0 **** 0.06
8005 H 39.260330294462555 140.37288830812122 98.68882931734683 H 0.0 **** 0.06
8006 C 49.49514032830962 94.9909016351412 113.62082901672491 C 0.0 **** -0.24
8007 H 49.01661855439251 95.11995989282102 114.59214709949859 H 0.0 **** 0.06
8008 H 50.416551608619656 95.57206190885117 113.58968630776437 H 0.0 **** 0.06
8009 H 48.820701292499365 95.3346824275614 112.83686879434944 H 0.0 **** 0.06
8010 H 49.72409134455674 93.93670582033357 113.46729895972501 H 0.0 **** 0.06
8011 C 24.55255839395994 29.53662326787179 62.283214118241446 C 0.0 **** -0.24
8012 H 25.640722683220304 29.59050816726443 62.28407767127095 H 0.0 **** 0.06
8013 H 24.139599926459084 30.52317546513848 62.49060482939154 H 0.0 **** 0.06
8014 H 24.223731836016498 28.835514385905356 63.050102189307395 H 0.0 **** 0.06
8015 H 24.20610838151589 29.195344991828563 61.30697977852222 H 0.0 **** 0.06
8016 C 80.13593046265012 59.43996868787676 126.41897086106283 C 0.0 **** -0.24
8017 H 79.61092185332481 58.80961031736379 125.70117549590557 H 0.0 **** 0.06
8018 H 80.94878305260889 58.873499190088836 126.87309954378213 H 0.0 **** 0.06
8019 H 79.44132849327755 59.7646983763058 127.19329353512833 H 0.0 **** 0.06
8020 H 80.54199581995721 60.31240734253413 125.90676423418932 H 0.0 **** 0.06
8021 C 78.19116215149361 29.22697179867933 17.01931024711574 C 0.0 **** -0.24
8022 H 78.39382252302588 28.614755047198976 17.898644861157678 H 0.0 **** 0.06
8023 H 78.0594828233528 30.266251153724212 17.321761745320075 H 0.0 **** 0.06
8024 H 77.28247636660062 28.873204706526046 16.53173265668105 H 0.0 **** 0.06
8025 H 79.02793715749297 29.153887760180424 16.324800204517132 H 0.0 **** 0.06
8026 C 25.777138929590194 141.0341354959521 142.65014525745994 C 0.0 **** -0.24
8027 H 24.805106450729312 140.66561247403064 142.97780595862503 H 0.0 **** 0.06
8028 H 26.54038781863825 140.73667647567805 143.36986200817483 H 0.0 **** 0.06
8029 H 25.748662969061684 142.12167387468625 142.57897424293446 H 0.0 **** 0.06
8030 H 26.01411878627931 140.61292895815467 141.67304469708085 H 0.0 **** 0.06
8031 C 77.27031290575735 62.02796740088 59.01226250316064 C 0.0 **** -0.24
8032 H 77.45268835452161 61.959720260025804 57.93930608940923 H 0.0 **** 0.06
8033 H 76.77811737761269 62.97446921115666 59.23671695086395 H 0.0 **** 0.06
8034 H 78.21944594175136 61.97436321186342 59.54518177571394 H 0.0 **** 0.06
8035 H 76.63094529458064 61.2022872163964 59.325027907971574 H 0.0 **** 0.06
8036 C 23.72961824423217 138.27707822853068 114.32615963946711 C 0.0 **** -0.24
8037 H 23.148448609486735 137.944177882791 113.46624388256043 H 0.0 **** 0.06
8038 H 23.20048709009515 138.01830866955322 115.24393874363926 H 0.0 **** 0.06
8039 H 23.86502035848818 139.35755566491116 114.27615283498153 H 0.0 **** 0.06
8040 H 24.703534981083322 137.78842388872317 114.31841433581093 H 0.0 **** 0.06
8041 C 101.53757597696342 95.04384787920173 132.2801138339673 C 0.0 **** -0.24
8042 H 101.03505353638579 95.39166648939981 133.1824016411005 H 0.0 **** 0.06
8043 H 100.88159690832113 95.1852807762693 131.42184170759575 H 0.0 **** 0.06
8044 H 101.78007435182803 93.98603921096884 132.3834301962915 H 0.0 **** 0.06
8045 H 102.45560888947468 95.61357869901713 132.13349086608025 H 0.0 **** 0.06
8046 C 108.43087259085081 139.27731369911623 65.74234827493356 C 0.0 **** -0.24
8047 H 108.72467374673317 138.22840391636024 65.79277730728074 H 0.0 **** 0.06
8048 H 109.27574066845864 139.90432267679438 66.02669587275597 H 0.0 **** 0.06
8049 H 107.59958779681074 139.45416432382237 66.4261511870009 H 0.0 **** 0.06
8050 H 108.12299200159578 139.5194587920101 64.7252901736646 H 0.0 **** 0.06
8051 C 86.95012561398056 90.4716884604581 80.45005583117978 C 0.0 **** -0.24
8052 H 86.24335709315943 90.41591807452774 81.27818675856548 H 0.0 **** 0.06
8053 H 86.8666911910559 89.57187904980937 79.84097242465901 H 0.0 **** 0.06
8054 H 87.96347800715881 90.55403190329442 80.84223608745896 H 0.0 **** 0.06
8055 H 86.72528969277852 91.34634232746009 79.83921105213244 H 0.0 **** 0.06
8056 C 95.10638362453403 45.03574660811728 83.34943956827419 C 0.0 **** -0.24
8057 H 95.75665320760812 44.472682310480195 84.0188557007663 H 0.0 **** 0.06
8058 H 94.3915509490933 45.61156627977948 83.93784663633059 H 0.0 **** 0.06
8059 H 94.57011131919603 44.34544824788094 82.69917728728925 H 0.0 **** 0.06
8060 H 95.70771295448591 45.712785007598484 82.74346027894987 H 0.0 **** 0.06
8061 C 23.532239110726437 30.551607940907182 115.46587536511434 C 0.0 **** -0.24
8062 H 24.02350010441046 31.175507005094587 116.21222814334759 H 0.0 **** 0.06
8063 H 23.11339825608212 29.66886931262288 115.94962610033924 H 0.0 **** 0.06
8064 H 24.258680610615954 30.244522077680614 114.7137617444253 H 0.0 **** 0.06
8065 H 22.73274385047597 31.11830597728705 114.98792600566078 H 0.0 **** 0.06
8066 C 133.96956647851783 36.17414279528513 140.64889042218618 C 0.0 **** -0.24
8067 H 135.03176938372533 36.223283892294354 140.40787576145772 H 0.0 **** 0.06
8068 H 133.84001125993652 36.24097375454673 141.72982244266717 H 0.0 **** 0.06
8069 H 133.55963144645182 35.230223455558864 140.2908535421089 H 0.0 **** 0.06
8070 H 133.44949586200593 37.00229055315613 140.1684170097081 H 0.0 **** 0.06
8071 C 27.68705657239714 9.900379118983153 131.6887072898115 C 0.0 **** -0.24
8072 H 28.53151346031717 10.546757211325485 131.92417437108313 H 0.0 **** 0.06
8073 H 27.592677717555972 9.131280386632739 132.45595738681266 H 0.0 **** 0.06
8074 H 27.849370042063512 9.4296935024567 130.71968807876502 H 0.0 **** 0.06
8075 H 26.774187426916257 10.49450997620093 131.65550616758 H 0.0 **** 0.06
8076 C 102.60034387019448 61.95487308168178 122.46623579287903 C 0.0 **** -0.24
8077 H 101.6034941364336 62.10580775266939 122.881039661592 H 0.0 **** 0.06
8078 H 103.06714645833833 62.922446580759626 122.28326109157432 H 0.0 **** 0.06
8079 H 102.52242632259302 61.40550152944812 121.52732913744883 H 0.0 **** 0.06
8080 H 103.20525422595881 61.385713926908636 123.17202061106532 H 0.0 **** 0.06
8081 C 57.02557746452089 15.228849645872799 19.17628883304738 C 0.0 **** -0.24
8082 H 57.43956389135013 14.765378078763547 18.28054430428267 H 0.0 **** 0.06
8083 H 56.33192495237718 16.0184169093954 18.889605093597325 H 0.0 **** 0.06
8084 H 57.833890649788586 15.653126478837606 19.77233571375723 H 0.0 **** 0.06
8085 H 56.498072898245894 14.476545440798674 19.763651804930532 H 0.0 **** 0.06
8086 C 25.06972496020569 82.84731383616943 43.49873745213691 C 0.0 **** -0.24
8087 H 26.02123896477582 82.39529977495124 43.22051049358629 H 0.0 **** 0.06
8088 H 25.183444832866115 83.9305967424998 43.55290282040502 H 0.0 **** 0.06
8089 H 24.757304191299028 82.46609549766066 44.470510934976375 H 0.0 **** 0.06
8090 H 24.31628160589065 82.59774588714987 42.75163381269388 H 0.0 **** 0.06
8091 C 112.1367078920142 87.71994834389722 60.99891872132014 C 0.0 **** -0.24
8092 H 112.53669745047797 87.84588400319325 62.00463907276031 H 0.0 **** 0.06
8093 H 112.73932255185788 86.99116572247775 60.45679570791981 H 0.0 **** 0.06
8094 H 112.16244134132525 88.67587403095752 60.47601838936839 H 0.0 **** 0.06
8095 H 111.10731074117875 87.36705015582396 61.06018261302734 H 0.0 **** 0.06
8096 C 97.62950160666334 99.00564778353062 74.48332002122444 C 0.0 **** -0.24
8097 H 96.87528383719241 99.38350697096101 73.79188531203604 H 0.0 **** 0.06
8098 H 98.03125866523851 98.0662086562971 74.10354338669228 H 0.0 **** 0.06
8099 H 97.17507979189335 98.83897756067242 75.45966151993153 H 0.0 **** 0.06
8100 H 98.43451193030307 99.73453070209364 74.57572107779791 H 0.0 **** 0.06
8101 C 63.358271594598875 43.96049820813957 91.65087475164827 C 0.0 **** -0.24
8102 H 64.30651047248665 44.27224408087582 91.21285484096663 H 0.0 **** 0.06
8103 H 62.930413504725266 43.15544346274396 91.05376739843842 H 0.0 **** 0.06
8104 H 62.671369684857495 44.806887463986385 91.66798930269255 H 0.0 **** 0.06
8105 H 63.52724186305261 43.60940635231913 92.66866865854507 H 0.0 **** 0.06
8106 C 8.849501738032352 37.89364442383162 114.63471058732968 C 0.0 **** -0.24
8107 H 9.408091108030419 37.21876429973679 115.28342596376346 H 0.0 **** 0.06
8108 H 8.48049950353792 38.73690854526839 115.21933774208257 H 0.0 **** 0.06
8109 H 8.007872883205248 37.35952952300062 114.19405990226205 H 0.0 **** 0.06
8110 H 9.502818020048387 38.25879637230898 113.84221970986799 H 0.0 **** 0.06
8111 C 67.7400617584866 30.289326718793 108.79533089408152 C 0.0 **** -0.24
8112 H 68.82711515475307 30.30742465880612 108.72016936525246 H 0.0 **** 0.06
8113 H 67.43716786889257 29.515083964027944 109.50128089834503 H 0.0 **** 0.06
8114 H 67.31160908181471 30.075537955796413 107.81587002822543 H 0.0 **** 0.06
8115 H 67.38349404138313 31.258892682476862 109.14365146497805 H 0.0 **** 0.06
8116 C 63.93439445716815 97.82171602898714 46.24751726188968 C 0.0 **** -0.24
8117 H 64.9669439326047 97.94178992476188 46.57916744574682 H 0.0 **** 0.06
8118 H 63.39829955511357 97.18875741364408 46.95481391283451 H 0.0 **** 0.06
8119 H 63.92157159332481 97.35844790681637 45.26098185219762 H 0.0 **** 0.06
8120 H 63.454164051641285 98.79863923917185 46.19646166679337 H 0.0 **** 0.06
8121 C 64.66056764157472 58.018914056345295 18.53712544102791 C 0.0 **** -0.24
8122 H 64.4669534341182 59.08727798403385 18.440430254853823 H 0.0 **** 0.06
8123 H 65.08731287808723 57.814089314944056 19.518498042819942 H 0.0 **** 0.06
8124 H 65.36191354313726 57.70582937691603 17.763347158949443 H 0.0 **** 0.06
8125 H 63.72626175157518 57.468228991879016 18.424008694649103 H 0.0 **** 0.06
8126 C 107.71146922249552 56.961673638607806 49.40417613147764 C 0.0 **** -0.24
8127 H 108.34499051139424 57.74342590290286 48.983577597952376 H 0.0 **** 0.06
8128 H 108.08102244342798 55.985581535909006 49.09012595420971 H 0.0 **** 0.06
8129 H 106.68855271421707 57.09466939562677 49.05123298518005 H 0.0 **** 0.06
8130 H 107.7322124090732 57.026170238109046 50.49226795854784 H 0.0 **** 0.06
8131 C 79.27006665423792 33.25280749404368 99.13233472636551 C 0.0 **** -0.24
8132 H 79.35570790051153 34.29005566926915 98.80941264613072 H 0.0 **** 0.06
8133 H 78.2438505275814 32.91136492292759 98.99016789628834 H 0.0 **** 0.06
8134 H 79.53507382957014 33.17755494159593 100.18734239604143 H 0.0 **** 0.06
8135 H 79.94469493531969 32.63189857129285 98.54341141953098 H 0.0 **** 0.06
8136 C 54.93721566475142 121.81139685354314 58.07651717824349 C 0.0 **** -0.24
8137 H 55.35068111310795 121.38965363258195 58.991761847581174 H 0.0 **** 0.06
8138 H 55.33643323546352 122.8151138304239 57.92565789757114 H 0.0 **** 0.06
8139 H 53.85097235011608 121.85986688288817 58.15719582359594 H 0.0 **** 0.06
8140 H 55.210446252945815 121.18077327311003 57.22976225753763 H 0.0 **** 0.06
8141 C 54.53430319960337 120.02463155993321 123.60419653549839 C 0.0 **** -0.24
8142 H 54.23841906559453 118.98597254052702 123.74865718383379 H 0.0 **** 0.06
8143 H 55.43820339114366 120.0639718181818 122.99496853560274 H 0.0 **** 0.06
8144 H 54.728584086797284 120.48479674366574 124.57342296501977 H 0.0 **** 0.06
8145 H 53.732618821938715 120.56368698607257 123.10052178629691 H 0.0 **** 0.06
8146 C 127.52811598052 8.377648075399122 54.28670868358029 C 0.0 **** -0.24
8147 H 128.43408055104544 7.846306885264255 53.995589083005186 H 0.0 **** 0.06
8148 H 126.73868016776726 7.657922531492488 54.50501848426036 H 0.0 **** 0.06
8149 H 127.21101418660731 9.029206104777984 53.47229325269775 H 0.0 **** 0.06
8150 H 127.7284907433265 8.978324325105405 55.17470696909126 H 0.0 **** 0.06
8151 C 62.77274168941926 86.94990231165414 86.12090493785752 C 0.0 **** -0.24
8152 H 62.76506341240413 88.0206116031651 86.32498226276812 H 0.0 **** 0.06
8153 H 63.36182605325314 86.43877758708574 86.88244878406238 H 0.0 **** 0.06
8154 H 63.212325915754064 86.76928898795259 85.1398761721565 H 0.0 **** 0.06
8155 H 61.75077097848707 86.57111247223256 86.13623535387285 H 0.0 **** 0.06
8156 C 137.85877911256827 117.21166912241758 115.37265837157699 C 0.0 **** -0.24
8157 H 138.35988119415927 116.30581065588161 115.03031633083086 H 0.0 **** 0.06
8158 H 138.200245119579 118.06142604537236 114.78165919356601 H 0.0 **** 0.06
8159 H 138.09249924501555 117.38021644486192 116.42306949190643 H 0.0 **** 0.06
8160 H 136.78106176373285 117.09601013122956 115.25431039650434 H 0.0 **** 0.06
8161 C 69.05998562648932 125.81800179890288 35.073228100243696 C 0.0 **** -0.24
8162 H 69.07374792648042 125.04199868879525 35.83833374885425 H 0.0 **** 0.06
8163 H 68.9812003831031 126.79575964576028 35.54869458988766 H 0.0 **** 0.06
8164 H 68.20404498806687 125.66350736612284 34.415399064750424 H 0.0 **** 0.06
8165 H 69.97939272490802 125.77040274491421 34.48980474833702 H 0.0 **** 0.06
8166 C 142.45323710509092 54.75835744772181 18.90316374280603 C 0.0 **** -0.24
8167 H 142.95593579792845 53.863762479204865 18.53359395529729 H 0.0 **** 0.06
8168 H 141.37990836523383 54.57464825752113 18.955520829380404 H 0.0 **** 0.06
8169 H 142.6477543699626 55.589489403511195 18.225647261664932 H 0.0 **** 0.06
8170 H 142.82984017474638 55.00298445492834 19.89582360678125 H 0.0 **** 0.06
8171 C 27.894868545373527 84.79521371741494 62.73618676086454 C 0.0 **** -0.24
8172 H 28.87815545190557 84.5293502445216 63.12361978667681 H 0.0 **** 0.06
8173 H 27.333007072726048 83.8861903254551 62.51743317383216 H 0.0 **** 0.06
8174 H 28.009832740618492 85.37994996072092 61.823339747394115 H 0.0 **** 0.06
8175 H 27.3582978124835 85.3839813694474 63.48012048920921 H 0.0 **** 0.06
8176 C 33.61599929512474 48.53313892930382 71.48940251525951 C 0.0 **** -0.24
8177 H 33.83497272782314 47.549489275978175 71.90493337474263 H 0.0 **** 0.06
8178 H 33.34087043405137 48.42926288300464 70.43944451229746 H 0.0 **** 0.06
8179 H 34.498668073711116 49.16694170945803 71.57382853267822 H 0.0 **** 0.06
8180 H 32.790394897240006 48.983273948106955 72.03885465496535 H 0.0 **** 0.06
8181 C 3.3845548821287856 19.78012568496024 36.57548244438482 C 0.0 **** -0.24
8182 H 3.501603493122875 20.072206501601904 35.53132040363778 H 0.0 **** 0.06
8183 H 3.1222322798752558 18.72333310798267 36.6293361019122 H 0.0 **** 0.06
8184 H 2.594602024903221 20.3748754914279 37.0320412733916 H 0.0 **** 0.06
8185 H 4.321365069110236 19.949556160448445 37.106366505544145 H 0.0 **** 0.06
8186 C 94.88471344016212 43.637510492898 130.61879131041346 C 0.0 **** -0.24
8187 H 94.15196469655685 44.43189858865844 130.4731795822568 H 0.0 **** 0.06
8188 H 95.24015808986354 43.289329969127834 129.64977054002927 H 0.0 **** 0.06
8189 H 94.42077680466888 42.80970055222838 131.15468157769172 H 0.0 **** 0.06
8190 H 95.72501144629872 44.02080647655424 131.19903127438047 H 0.0 **** 0.06
8191 C 1.9650635693133722 24.02284438014817 33.90863847715852 C 0.0 **** -0.24
8192 H 2.1934789303954005 24.749840522850235 34.68762236787363 H 0.0 **** 0.06
8193 H 2.80080588582328 23.329940314417968 33.802423085535466 H 0.0 **** 0.06
8194 H 1.8011803136206765 24.541290477135732 32.96445058421255 H 0.0 **** 0.06
8195 H 1.0666251568377163 23.469377294777274 34.180933320266725 H 0.0 **** 0.06
8196 C 9.230530210059442 76.52749045204826 120.7907337438155 C 0.0 **** -0.24
8197 H 8.313021390929492 76.72419918828899 121.34531839505688 H 0.0 **** 0.06
8198 H 10.017448832384304 76.23023879400807 121.4844177211382 H 0.0 **** 0.06
8199 H 9.535123171965466 77.42991162174104 120.26029046285329 H 0.0 **** 0.06
8200 H 9.055882080303547 75.72543707012551 120.07365195267816 H 0.0 **** 0.06
8201 C 128.32558049194975 27.941882757302707 134.12913774509252 C 0.0 **** -0.24
8202 H 129.13564246460507 28.670652746923338 134.10181015921785 H 0.0 **** 0.06
8203 H 128.70538307574773 26.988576727073394 134.49763542270287 H 0.0 **** 0.06
8204 H 127.92354648198226 27.80780976628779 133.1237601621408 H 0.0 **** 0.06
8205 H 127.53627915956677 28.29997109328417 134.7900946620885 H 0.0 **** 0.06
8206 C 49.35952394405679 70.29794441054014 27.933572728678485 C 0.0 **** -0.24
8207 H 48.30318974180615 70.44618174472853 28.156663785811475 H 0.0 **** 0.06
8208 H 49.65561703378462 69.29124778193179 28.23077423427287 H 0.0 **** 0.06
8209 H 49.95209588965055 71.02860444841866 28.483812930994247 H 0.0 **** 0.06
8210 H 49.52573314875954 70.42582050407665 26.86440480102567 H 0.0 **** 0.06
8211 C 52.328337800982155 10.38261746443348 140.75832280516204 C 0.0 **** -0.24
8212 H 53.40693118833505 10.261967036756523 140.65520299519454 H 0.0 **** 0.06
8213 H 52.11864140285343 11.22836151200012 141.4125981977804 H 0.0 **** 0.06
8214 H 51.90065155666318 9.47621852840772 141.18668052437687 H 0.0 **** 0.06
8215 H 51.888332458009955 10.563071327254939 139.7774596113894 H 0.0 **** 0.06
8216 C 22.465125363789127 125.50118741339334 109.641713561229 C 0.0 **** -0.24
8217 H 22.962608528123212 124.88775774132696 108.8898355931429 H 0.0 **** 0.06
8218 H 22.476569130103655 126.54443825864772 109.32455484105661 H 0.0 **** 0.06
8219 H 22.98956417329373 125.4055509972294 110.59289048647717 H 0.0 **** 0.06
8220 H 21.434908651725436 125.16721575999875 109.75976990947392 H 0.0 **** 0.06
8221 C 59.5479376030909 117.16559865831987 37.740225446262656 C 0.0 **** -0.24
8222 H 60.31713951289862 116.60051360138876 37.214101712195344 H 0.0 **** 0.06
8223 H 59.78913643020175 118.2281077545022 37.702669345735956 H 0.0 **** 0.06
8224 H 59.50436888636557 116.83864518949157 38.77927313828985 H 0.0 **** 0.06
8225 H 58.58228236210536 116.99585684573476 37.26456743356951 H 0.0 **** 0.06
8226 C 145.57463590098274 8.895506888641062 46.201977191878456 C 0.0 **** -0.24
8227 H 146.34329440169003 9.48859200103842 45.707500689836905 H 0.0 **** 0.06
8228 H 145.27985146443956 8.070069322489449 45.55463198121288 H 0.0 **** 0.06
8229 H 144.70825477426166 9.524336310450657 46.40788059799954 H 0.0 **** 0.06
8230 H 145.96662036308717 8.500631601876314 47.139673634539804 H 0.0 **** 0.06
8231 C 24.120203680345156 85.33828518717392 111.38128599693464 C 0.0 **** -0.24
8232 H 24.824111157927348 85.6829122852036 110.6235688100849 H 0.0 **** 0.06
8233 H 24.533312022653206 85.52620682599117 112.37243576486075 H 0.0 **** 0.06
8234 H 23.94534894757021 84.26968653572119 111.25644353925459 H 0.0 **** 0.06
8235 H 23.177695769661312 85.87570578694259 111.27272785728682 H 0.0 **** 0.06
8236 C 99.16966294174361 111.2705430595829 139.15091811316518 C 0.0 **** -0.24
8237 H 99.88996973162669 110.96059184148027 138.39420466533207 H 0.0 **** 0.06
8238 H 98.97077267090373 110.43761047514772 139.82617207929445 H 0.0 **** 0.06
8239 H 98.2421969959839 111.57497609401759 138.66616112980054 H 0.0 **** 0.06
8240 H 99.57526739659369 112.10825113825388 139.71763503415298 H 0.0 **** 0.06
8241 C 80.094283493545 45.96564450418586 31.356772881062348 C 0.0 **** -0.24
8242 H 79.42821843751331 46.74607259225141 30.989155925497222 H 0.0 **** 0.06
8243 H 79.73842460901037 45.61152155537479 32.32534883498176 H 0.0 **** 0.06
8244 H 81.10030294153464 46.3701441979847 31.465757931777652 H 0.0 **** 0.06
8245 H 80.10920254783017 45.13715163521934 30.648748251242182 H 0.0 **** 0.06
8246 C 12.474706206294712 98.86202579766643 138.1802455949562 C 0.0 **** -0.24
8247 H 11.88089781482929 98.71080340748905 137.27875500600996 H 0.0 **** 0.06
8248 H 11.814189474396215 99.11023744072 139.011736770204 H 0.0 **** 0.06
8249 H 13.179550712575704 99.67709037008626 138.01925859134212 H 0.0 **** 0.06
8250 H 13.0213449763842 97.94766842748153 138.41201826805278 H 0.0 **** 0.06
8251 C 95.52815798881034 110.62556197374604 13.724095250713106 C 0.0 **** -0.24
8252 H 94.86690332550253 110.63119866388323 14.590194762607041 H 0.0 **** 0.06
8253 H 96.51156570374084 110.25678043797163 14.021030394274646 H 0.0 **** 0.06
8254 H 95.62297879072737 111.63823866596474 13.333284821959012 H 0.0 **** 0.06
8255 H 95.11323931978734 109.97584461933471 12.954048682521716 H 0.0 **** 0.06
8256 C 143.94297017794986 16.187219472226246 11.118895100356667 C 0.0 **** -0.24
8257 H 144.97341699972253 16.209426717755974 10.762779771929331 H 0.0 **** 0.06
8258 H 143.26599999466924 16.14790463924723 10.264908767893019 H 0.0 **** 0.06
8259 H 143.7411317618304 17.085458924882204 11.702433475573287 H 0.0 **** 0.06
8260 H 143.79356922048459 15.30714533750222 11.743034262242134 H 0.0 **** 0.06
8261 C 20.1717823188271 130.99800186594146 136.04935031411526 C 0.0 **** -0.24
8262 H 21.134335619058305 130.54083705140548 135.81982171698894 H 0.0 **** 0.06
8263 H 19.523994029126555 130.26137149067802 136.52432390026058 H 0.0 **** 0.06
8264 H 19.708362311968955 131.35002954313853 135.12681663986712 H 0.0 **** 0.06
8265 H 20.32268209618067 131.84065301852178 136.72465559482657 H 0.0 **** 0.06
8266 C 73.09766279710232 100.46678885871906 50.63340834171893 C 0.0 **** -0.24
8267 H 73.29914601070271 99.69171927179693 51.37295519843859 H 0.0 **** 0.06
8268 H 73.34527076593122 101.44255618361356 51.05291445047827 H 0.0 **** 0.06
8269 H 72.04164059197961 100.4440391762221 50.363718769995174 H 0.0 **** 0.06
8270 H 73.70407337582009 100.28784385719528 49.74536228151713 H 0.0 **** 0.06
8271 C 74.03106042033107 32.18947520928566 5.438955539539791 C 0.0 **** -0.24
8272 H 74.78308970557117 31.85811624605134 4.72295617944215 H 0.0 **** 0.06
8273 H 73.05392900161961 32.21471940071018 4.954012319584422 H 0.0 **** 0.06
8274 H 74.28487362607427 33.18653224566515 5.797466312452173 H 0.0 **** 0.06
8275 H 74.00138716762467 31.49724985658662 6.280733110707047 H 0.0 **** 0.06
8276 C 133.48916132424057 105.0229743144516 139.69387575871139 C 0.0 **** -0.24
8277 H 133.70300773940565 104.68152463118705 140.70594426200358 H 0.0 **** 0.06
8278 H 133.40033117459578 104.16164151541815 139.03122883577788 H 0.0 **** 0.06
8279 H 134.30003668631903 105.6647999276336 139.3484861898511 H 0.0 **** 0.06
8280 H 132.5544154977748 105.58344731935475 139.68917061828694 H 0.0 **** 0.06
8281 C 92.95776007652617 48.047458140211816 37.35921096802277 C 0.0 **** -0.24
8282 H 93.62685925157963 47.95284243649034 36.50325821738153 H 0.0 **** 0.06
8283 H 93.53382967996284 47.95740384819345 38.281240262752874 H 0.0 **** 0.06
8284 H 92.20616393318903 47.258838067621866 37.32229866270985 H 0.0 **** 0.06
8285 H 92.46743836062724 49.02027748803273 37.330505452156586 H 0.0 **** 0.06
8286 C 19.647009720000675 20.695472069989847 51.49710219278586 C 0.0 **** -0.24
8287 H 19.554355483134053 21.5548958854869 50.833320013903034 H 0.0 **** 0.06
8288 H 18.891432583382787 19.953332623576642 51.238989548163985 H 0.0 **** 0.06
8289 H 19.50339305782881 21.01628165443313 52.52929229097627 H 0.0 **** 0.06
8290 H 20.63933957192007 20.256966228080415 51.38758038091838 H 0.0 **** 0.06
8291 C 62.371555991558466 111.62900027760152 138.87117375294469 C 0.0 **** -0.24
8292 H 62.387653407279544 111.01394622398702 137.97174657116756 H 0.0 **** 0.06
8293 H 61.809982471148174 112.54302007813719 138.67530663455864 H 0.0 **** 0.06
8294 H 63.39318667522025 111.88311636669461 139.1551608882891 H 0.0 **** 0.06
8295 H 61.89605181141465 111.07666323658317 139.68074240215927 H 0.0 **** 0.06
8296 C 94.33404402510806 59.0001250578828 8.975789220116553 C 0.0 **** -0.24
8297 H 93.90069779402806 58.88785968374489 7.982176918065136 H 0.0 **** 0.06
8298 H 93.89832499820457 59.87196273662394 9.465594247410536 H 0.0 **** 0.06
8299 H 95.41250630232014 59.13215813894456 8.889121606922743 H 0.0 **** 0.06
8300 H 94.12361646040063 58.10819797962128 9.567177660065965 H 0.0 **** 0.06
8301 C 4.289229571043677 67.48183553961786 144.14701654379522 C 0.0 **** -0.24
8302 H 3.4942911116491473 67.27946003966923 143.42856964905218 H 0.0 **** 0.06
8303 H 3.880246617389446 67.45592616009935 145.15697423477422 H 0.0 **** 0.06
8304 H 4.713689441602639 68.46617654743463 143.95131150019193 H 0.0 **** 0.06
8305 H 5.067125467274764 66.7246098853553 144.05012397041338 H 0.0 **** 0.06
8306 C 108.55379508022628 137.46811572537527 53.26931356780558 C 0.0 **** -0.24
8307 H 109.37942283421239 137.02717417120385 53.827011703962825 H 0.0 **** 0.06
8308 H 108.53248270901696 137.0518857562953 52.26213915784656 H 0.0 **** 0.06
8309 H 108.68956090315027 138.54872511359514 53.213287327281606 H 0.0 **** 0.06
8310 H 107.61404049290252 137.24558050583454 53.775096430753734 H 0.0 **** 0.06
8311 C 91.34831094398572 51.652231803691194 2.7062907552930326 C 0.0 **** -0.24
8312 H 91.72772758651496 50.82124819970721 3.3014471917820494 H 0.0 **** 0.06
8313 H 91.39707769403032 51.39350391592285 1.648007885694721 H 0.0 **** 0.06
8314 H 91.95375172770747 52.53874799069479 2.8930161433090227 H 0.0 **** 0.06
8315 H 90.31291133066637 51.8542949524913 2.9834443059961373 H 0.0 **** 0.06
8316 C 122.32371264049968 117.95633435836803 134.15340680542502 C 0.0 **** -0.24
8317 H 122.1100730895586 116.88928469211154 134.21773456261073 H 0.0 **** 0.06
8318 H 122.66398849975982 118.3179539435749 135.12389200599907 H 0.0 **** 0.06
8319 H 121.41913679247617 118.49063514830456 133.86250629213546 H 0.0 **** 0.06
8320 H 123.1008747439025 118.12636533140724 133.40905918562262 H 0.0 **** 0.06
8321 C 100.59253600650045 48.111011935178 121.32363860311804 C 0.0 **** -0.24
8322 H 101.55643551247573 48.56099839932767 121.08323087247297 H 0.0 **** 0.06
8323 H 100.01126182452761 47.99018532111842 120.40977037921104 H 0.0 **** 0.06
8324 H 100.05269500538098 48.75722414017247 122.0154531412982 H 0.0 **** 0.06
8325 H 100.75137679571853 47.136190945404124 121.78466629842475 H 0.0 **** 0.06
8326 C 38.49325213173495 4.451280640320476 88.1045682624889 C 0.0 **** -0.24
8327 H 38.70084465843493 3.785531416735182 87.26727430041149 H 0.0 **** 0.06
8328 H 37.66409581820051 5.110697092203139 87.8470907489822 H 0.0 **** 0.06
8329 H 39.37781028585164 5.048375886840745 88.3227882632907 H 0.0 **** 0.06
8330 H 38.2281112919635 3.859932970784371 88.98134428438254 H 0.0 **** 0.06
8331 C 128.90989801301166 52.25812792926733 61.71374029982937 C 0.0 **** -0.24
8332 H 129.03367159166086 52.41858332220676 60.642203499266 H 0.0 **** 0.06
8333 H 129.42681539380598 53.047255949232195 62.260009735372165 H 0.0 **** 0.06
8334 H 129.33056017632506 51.290526675747785 61.986349965364724 H 0.0 **** 0.06
8335 H 127.84921499326182 52.276959832448966 61.96325336187931 H 0.0 **** 0.06
8336 C 20.805892232972838 118.97972942822554 144.57037809238568 C 0.0 **** -0.24
8337 H 21.455155671906937 118.11087323557484 144.4572151552412 H 0.0 **** 0.06
8338 H 21.41533296685975 119.87727413206346 144.67797183671448 H 0.0 **** 0.06
8339 H 20.184507747088105 118.85436236391848 145.45680761245927 H 0.0 **** 0.06
8340 H 20.17017885838436 119.07512113638091 143.69039184126282 H 0.0 **** 0.06
8341 C 114.18612635231875 17.88976791284597 94.18893358591012 C 0.0 **** -0.24
8342 H 114.36628863426523 18.62105674226362 94.97707577485207 H 0.0 **** 0.06
8343 H 113.1548929094863 17.971744372952514 93.84639845461191 H 0.0 **** 0.06
8344 H 114.36141190199646 16.886500099078688 94.57862399025873 H 0.0 **** 0.06
8345 H 114.86276844661364 18.079719942265314 93.35651089001809 H 0.0 **** 0.06
8346 C 68.50735442313024 100.5432654547527 64.39923801187567 C 0.0 **** -0.24
8347 H 69.11263064870147 101.41648088778463 64.64053109163424 H 0.0 **** 0.06
8348 H 67.85729575556903 100.30791049784548 65.24235941525848 H 0.0 **** 0.06
8349 H 69.15913096238543 99.69404793793083 64.19435306307781 H 0.0 **** 0.06
8350 H 67.89977638889073 100.75484767452514 63.51892850594541 H 0.0 **** 0.06
8351 C 26.005304376760897 49.77249893153797 26.617957304290712 C 0.0 **** -0.24
8352 H 26.839766345041106 50.47036745953139 26.68867256629119 H 0.0 **** 0.06
8353 H 25.772374889114857 49.3835619419084 27.609884633827818 H 0.0 **** 0.06
8354 H 26.2758461493599 48.94793095395994 25.958550989358173 H 0.0 **** 0.06
8355 H 25.133956335484868 50.28808030296932 26.21540632135583 H 0.0 **** 0.06
8356 C 100.10225022447415 60.208681854050056 86.15634181592804 C 0.0 **** -0.24
8357 H 99.18072910959964 59.78754262148759 85.75430514842606 H 0.0 **** 0.06
8358 H 99.89935964263049 61.19750192332758 86.57017302527558 H 0.0 **** 0.06
8359 H 100.84149744969011 60.29239078545449 85.36094244069261 H 0.0 **** 0.06
8360 H 100.48587479534481 59.5576647765276 86.9418148221834 H 0.0 **** 0.06
8361 C 69.72694047598469 48.56615796815859 2.2054256220973762 C 0.0 **** -0.24
8362 H 69.84580707073843 48.83596880880236 3.2541995180403553 H 0.0 **** 0.06
8363 H 70.31375721116238 49.24555228691156 1.5859811591824418 H 0.0 **** 0.06
8364 H 68.67514754837241 48.63871060713015 1.9294226668894119 H 0.0 **** 0.06
8365 H 70.07360305753495 47.543620567821534 2.051805080860724 H 0.0 **** 0.06
8366 C 115.62769153783039 132.60965503430887 61.087142416568696 C 0.0 **** -0.24
8367 H 116.01454035248598 132.1429266523406 60.181003062399824 H 0.0 **** 0.06
8368 H 115.8425380376733 131.97028771216898 61.943780224990306 H 0.0 **** 0.06
8369 H 114.5499039926968 132.7442574101967 60.99405043078289 H 0.0 **** 0.06
8370 H 116.10417549090975 133.57933645569815 61.228134758152066 H 0.0 **** 0.06
8371 C 127.04351885860004 8.21821306646791 81.37150378285251 C 0.0 **** -0.24
8372 H 127.7283890323844 8.890085007877985 80.8536603137605 H 0.0 **** 0.06
8373 H 126.82099177084527 8.618565561332957 82.36032906999776 H 0.0 **** 0.06
8374 H 127.50494607403246 7.23581685434425 81.47221875812704 H 0.0 **** 0.06
8375 H 126.1203588233445 8.129506332551728 80.79797121905462 H 0.0 **** 0.06
8376 C 106.76457232421136 6.729794026105139 44.44034162423911 C 0.0 **** -0.24
8377 H 107.02650021693431 6.677309538964948 43.38282513551694 H 0.0 **** 0.06
8378 H 107.49288869313041 7.349195949316595 44.9646215673403 H 0.0 **** 0.06
8379 H 106.768404510026 5.724944977988571 44.86437660411433 H 0.0 **** 0.06
8380 H 105.77205734917946 7.165145107401031 44.54732885566801 H 0.0 **** 0.06
8381 C 122.28765903971629 99.86579344007087 89.32630031237434 C 0.0 **** -0.24
8382 H 123.2899210276538 99.51584584166774 89.57236627467924 H 0.0 **** 0.06
8383 H 122.07163476178596 99.64267429688039 88.28095716141397 H 0.0 **** 0.06
8384 H 122.22846955046566 100.94153660349708 89.48968671757214 H 0.0 **** 0.06
8385 H 121.56088916247603 99.36020902398913 89.96376162912864 H 0.0 **** 0.06
8386 C 129.58290755194568 131.1114131599644 56.94289339410588 C 0.0 **** -0.24
8387 H 130.37563247062153 131.84332299243437 56.788698429228845 H 0.0 **** 0.06
8388 H 130.02142861024896 130.16377574054133 57.25858245163042 H 0.0 **** 0.06
8389 H 129.03554800573545 130.96680759693118 56.01164066840724 H 0.0 **** 0.06
8390 H 128.90112185705863 131.47134832907847 57.71330680833398 H 0.0 **** 0.06
8391 C 69.07366463738727 47.25556238262536 100.20838162975939 C 0.0 **** -0.24
8392 H 68.94470794331282 48.237183203339896 99.75083633653287 H 0.0 **** 0.06
8393 H 68.1072106295778 46.75537504369976 100.27406413949578 H 0.0 **** 0.06
8394 H 69.49081719651916 47.373423222591214 101.20794674256514 H 0.0 **** 0.06
8395 H 69.75148455381134 46.65802127662778 99.59902568190114 H 0.0 **** 0.06
8396 C 70.08977477026005 26.21857869229987 109.64629376668998 C 0.0 **** -0.24
8397 H 70.28672540878968 26.910296238060482 108.82704032971586 H 0.0 **** 0.06
8398 H 69.75553267939877 26.7772081113022 110.52029907242584 H 0.0 **** 0.06
8399 H 71.00173665269247 25.6739454135207 109.88890656918628 H 0.0 **** 0.06
8400 H 69.31445572944938 25.513579554210935 109.3469119331024 H 0.0 **** 0.06
8401 C 54.35343906842276 3.9397655140900554 134.8018475080434 C 0.0 **** -0.24
8402 H 53.95631269628075 4.953257377130001 134.8621948578832 H 0.0 **** 0.06
8403 H 54.538356234173904 3.6837505333026854 133.7586582334702 H 0.0 **** 0.06
8404 H 53.6310092068114 3.2413634768410873 135.22532197609587 H 0.0 **** 0.06
8405 H 55.28603857117879 3.8815043112797696 135.36163731339428 H 0.0 **** 0.06
8406 C 61.76552605817557 99.19689562241393 133.33720125872577 C 0.0 **** -0.24
8407 H 61.638877657524915 99.39733474830943 134.40064810440538 H 0.0 **** 0.06
8408 H 62.663272851666534 99.6978154719082 132.97701959623296 H 0.0 **** 0.06
8409 H 60.89813928726301 99.5684722979232 132.79229775591617 H 0.0 **** 0.06
8410 H 61.86023278696695 98.12237935036988 133.17882406197288 H 0.0 **** 0.06
8411 C 92.78939254110867 14.602486912850708 30.151695230219325 C 0.0 **** -0.24
8412 H 92.49065234796728 15.470588815992357 30.738033200387292 H 0.0 **** 0.06
8413 H 92.13173129668603 14.503291909859904 29.288894628832523 H 0.0 **** 0.06
8414 H 92.71985151596274 13.706175587210915 30.767596947561103 H 0.0 **** 0.06
8415 H 93.81769860276333 14.730309205062142 29.811767217187068 H 0.0 **** 0.06
8416 C 47.13461546241088 91.23755003235013 80.41966174391371 C 0.0 **** -0.24
8417 H 48.13329804629673 91.2699673104772 80.85580178616124 H 0.0 **** 0.06
8418 H 46.65822657656119 90.29067939272413 80.67431155992699 H 0.0 **** 0.06
8419 H 47.207969597587066 91.32763644133665 79.33705729455176 H 0.0 **** 0.06
8420 H 46.539647519890764 92.06130407787856 80.81374841682839 H 0.0 **** 0.06
8421 C 24.916650789910825 80.60522960801032 132.76760618782376 C 0.0 **** -0.24
8422 H 24.3812857915075 81.35806252801304 132.18929157001236 H 0.0 **** 0.06
8423 H 24.443851070542372 80.49289009176601 133.7435227700343 H 0.0 **** 0.06
8424 H 25.952885844256052 80.91758923838327 132.89988355737017 H 0.0 **** 0.06
8425 H 24.88950684121977 79.65342690597689 132.23792356518925 H 0.0 **** 0.06
8426 C 73.45803919640949 39.08397555015164 34.816426450728805 C 0.0 **** -0.24
8427 H 72.75127225889165 38.376041530606585 34.38241739783771 H 0.0 **** 0.06
8428 H 73.9973169879072 38.603133138455625 35.633147319259635 H 0.0 **** 0.06
8429 H 72.91708275468241 39.949819311631806 35.19754793025425 H 0.0 **** 0.06
8430 H 74.1656486116265 39.40513847787985 34.05151193077301 H 0.0 **** 0.06
8431 C 96.52468626502989 88.83135272736288 43.53429472801281 C 0.0 **** -0.24
8432 H 95.5949087932835 88.45355635948084 43.95923430045025 H 0.0 **** 0.06
8433 H 96.34387767100155 89.17527865233907 42.51541095127615 H 0.0 **** 0.06
8434 H 97.26871939075373 88.03482203971242 43.52248492150565 H 0.0 **** 0.06
8435 H 96.88836339957848 89.66170925750302 44.139195423722015 H 0.0 **** 0.06
8436 C 89.99345369823163 72.04129763131195 99.01945133790701 C 0.0 **** -0.24
8437 H 89.21662883150458 72.5205389933458 99.61479217816442 H 0.0 **** 0.06
8438 H 90.58786040757042 71.38641871466402 99.65771713591616 H 0.0 **** 0.06
8439 H 90.63738589949742 72.80383838516902 98.58121530770542 H 0.0 **** 0.06
8440 H 89.53205400451077 71.4541137608631 98.22503372060675 H 0.0 **** 0.06
8441 C 133.11900199142153 123.44228549873927 119.72394815002924 C 0.0 **** -0.24
8442 H 134.15234959201578 123.1424537015159 119.89625745137015 H 0.0 **** 0.06
8443 H 133.09158852272847 124.23842371684836 118.97917074213761 H 0.0 **** 0.06
8444 H 132.68575988413403 123.80302730538594 120.65720189480079 H 0.0 **** 0.06
8445 H 132.54778834944847 122.58691820826219 119.36415704560737 H 0.0 **** 0.06
8446 C 7.686642283834583 5.077702057752873 13.307197736068055 C 0.0 **** -0.24
8447 H 7.0948230057808495 5.768442968404742 12.706085550703158 H 0.0 **** 0.06
8448 H 7.487945514625434 5.255310902673841 14.364174364895725 H 0.0 **** 0.06
8449 H 8.746449535370136 5.236417780332289 13.103580739212454 H 0.0 **** 0.06
8450 H 7.417124438164674 4.053185091541081 13.052839791635797 H 0.0 **** 0.06
8451 C 9.13182372774952 47.27078286245404 34.87069086885529 C 0.0 **** -0.24
8452 H 9.517159226940066 46.99378918700177 33.889141594963604 H 0.0 **** 0.06
8453 H 9.924450842711224 47.74255846315833 35.45173127217373 H 0.0 **** 0.06
8454 H 8.784016513377935 46.376961765596036 35.389839153634654 H 0.0 **** 0.06
8455 H 8.302589677963226 47.9671478598994 34.75206746099073 H 0.0 **** 0.06
8456 C 50.27391478239487 123.33739832971865 96.7486309454209 C 0.0 **** -0.24
8457 H 50.77391425726967 123.41321605161914 95.78236227042514 H 0.0 **** 0.06
8458 H 50.95636180118743 122.89978621042219 97.4773109855192 H 0.0 **** 0.06
8459 H 49.39092517578577 122.70718588837143 96.65127360454571 H 0.0 **** 0.06
8460 H 49.975698372724466 124.33169287306195 97.08108128672885 H 0.0 **** 0.06
8461 C 11.197035237804215 1.0905460479080489 59.59813822061804 C 0.0 **** -0.24
8462 H 10.562471598303404 0.6864544574222577 60.38713561399149 H 0.0 **** 0.06
8463 H 12.000288285410676 0.38652539946059505 59.38195000988878 H 0.0 **** 0.06
8464 H 11.62284394500847 2.039355244656292 59.92494697284721 H 0.0 **** 0.06
8465 H 10.600546493676461 1.2501296666767985 58.69991990561559 H 0.0 **** 0.06
8466 C 104.94086856760717 121.63338708903841 22.129488881080135 C 0.0 **** -0.24
8467 H 105.77016532280008 121.56860806122653 21.425615715176207 H 0.0 **** 0.06
8468 H 104.90037053794677 122.63825750734419 22.550655449423118 H 0.0 **** 0.06
8469 H 105.08684225728548 120.90856232399055 22.92983793028162 H 0.0 **** 0.06
8470 H 104.00707341748617 121.41899879866047 21.610037092859102 H 0.0 **** 0.06
8471 C 123.40578187529033 37.84487677285164 48.04135798368554 C 0.0 **** -0.24
8472 H 123.3443298442863 36.82533262432664 48.42274794139004 H 0.0 **** 0.06
8473 H 122.702029101205 38.47768929586096 48.58178117517254 H 0.0 **** 0.06
8474 H 123.15920100940204 37.85077414978701 46.97969514269394 H 0.0 **** 0.06
8475 H 124.41780451673438 38.22407738787747 48.181732287202394 H 0.0 **** 0.06
8476 C 87.05217650374188 18.3006131706901 121.28042682364814 C 0.0 **** -0.24
8477 H 86.80635170385581 17.93923307664238 122.27967782018563 H 0.0 **** 0.06
8478 H 86.29437995758121 19.014389379782017 120.95722283490495 H 0.0 **** 0.06
8479 H 87.07928336722051 17.459272573828002 120.58720812813199 H 0.0 **** 0.06
8480 H 88.02684978250518 18.78784958509425 121.29952020621634 H 0.0 **** 0.06
8481 C 21.847277921530917 14.278942863741975 126.48870794222833 C 0.0 **** -0.24
8482 H 21.66490629979546 14.447523523818518 127.55017817825356 H 0.0 **** 0.06
8483 H 22.698109297816416 13.607316931265103 126.3681320951055 H 0.0 **** 0.06
8484 H 22.06409030739343 15.230040816325698 126.00186095113133 H 0.0 **** 0.06
8485 H 20.962876023867523 13.831188113064627 126.03505292083506 H 0.0 **** 0.06
8486 C 36.931897486762324 53.294426601497236 43.197077811401215 C 0.0 **** -0.24
8487 H 37.716441215582165 52.605458269739685 43.508062729386936 H 0.0 **** 0.06
8488 H 37.18912751288748 53.72342838817103 42.228279015596286 H 0.0 **** 0.06
8489 H 36.83602058713409 54.091569480487976 43.934633076782205 H 0.0 **** 0.06
8490 H 35.98648622710864 52.757715046139566 43.11807684360841 H 0.0 **** 0.06
8491 C 18.785771152215162 103.24479609516885 53.60916311426102 C 0.0 **** -0.24
8492 H 18.261228019027982 104.1424088388336 53.28312213683476 H 0.0 **** 0.06
8493 H 19.32778882061045 103.45570236142555 54.53149132461877 H 0.0 **** 0.06
8494 H 19.48889173868463 102.93385695602348 52.8362580722451 H 0.0 **** 0.06
8495 H 18.06433738099949 102.44629480304843 53.78511179180187 H 0.0 **** 0.06
8496 C 19.973429037446635 119.85413843716134 123.35497196762152 C 0.0 **** -0.24
8497 H 20.647061597520064 120.35414927525721 124.05054454531431 H 0.0 **** 0.06
8498 H 19.436709543576768 119.06146218050009 123.87560370448423 H 0.0 **** 0.06
8499 H 20.551561755840197 119.42479714698402 122.53591728658056 H 0.0 **** 0.06
8500 H 19.260600347889977 120.57624603222098 122.95754933238068 H 0.0 **** 0.06
8501 C 90.75127878612415 95.99964308358994 121.69042566742432 C 0.0 **** -0.24
8502 H 90.36649220322232 95.34930927730449 122.47590839607473 H 0.0 **** 0.06
8503 H 91.77366682834835 96.29284539555499 121.92931476511565 H 0.0 **** 0.06
8504 H 90.12570240218321 96.88869439478941 121.61625145672191 H 0.0 **** 0.06
8505 H 90.73948065903653 95.46646859822556 120.739616178573 H 0.0 **** 0.06
8506 C 88.31436934549129 99.03062629807044 38.84385039853032 C 0.0 **** -0.24
8507 H 87.97471734791642 98.93506133657291 37.81258770135676 H 0.0 **** 0.06
8508 H 87.4515403252766 99.10643260064063 39.50545630526338 H 0.0 **** 0.06
8509 H 88.92836685181376 99.92604972057597 38.94220622328422 H 0.0 **** 0.06
8510 H 88.9035779941731 98.15435103239594 39.113701676575914 H 0.0 **** 0.06
8511 C 27.629187632796658 104.55291852080654 27.053809315318766 C 0.0 **** -0.24
8512 H 27.409101331432055 104.56319696946326 28.12131166659453 H 0.0 **** 0.06
8513 H 26.73184166895416 104.81691084465226 26.495115190545086 H 0.0 **** 0.06
8514 H 27.960348013034945 103.55596469273092 26.761958681542545 H 0.0 **** 0.06
8515 H 28.41796011539148 105.27429534219657 26.839097013584478 H 0.0 **** 0.06
8516 C 72.03850243640987 115.25013571166961 99.48651997095806 C 0.0 **** -0.24
8517 H 70.96868241992566 115.15679696452032 99.67281784983737 H 0.0 **** 0.06
8518 H 72.20110041978894 115.89117054763996 98.61909031654139 H 0.0 **** 0.06
8519 H 72.46089193253238 114.26434867037334 99.29508104083433 H 0.0 **** 0.06
8520 H 72.52217886638098 115.6894868853504 100.35881610397459 H 0.0 **** 0.06
8521 C 35.03191446645691 139.03941428520704 141.8223023054919 C 0.0 **** -0.24
8522 H 34.31504869312742 138.9911081782248 142.64203450770682 H 0.0 **** 0.06
8523 H 35.49279721238176 138.06062458921292 141.6853505993923 H 0.0 **** 0.06
8524 H 35.8014973161694 139.77483151728083 142.0561219240253 H 0.0 **** 0.06
8525 H 34.51646993830499 139.33030925261292 140.9066937776112 H 0.0 **** 0.06
8526 C 82.92502377259272 76.86278173628745 130.5365975280315 C 0.0 **** -0.24
8527 H 83.4970059849277 76.19184841461569 129.8956968168407 H 0.0 **** 0.06
8528 H 83.60911772433481 77.50701232814063 131.08882510836344 H 0.0 **** 0.06
8529 H 82.33083064737727 76.27606701133087 131.23713321991164 H 0.0 **** 0.06
8530 H 82.26391391363786 77.47528272008245 129.92259895767836 H 0.0 **** 0.06
8531 C 65.54733070923652 127.8034642281144 45.25214836193619 C 0.0 **** -0.24
8532 H 66.6160942466411 127.80540312359753 45.03893574159741 H 0.0 **** 0.06
8533 H 65.15017099739373 126.79744484220274 45.11141058774581 H 0.0 **** 0.06
8534 H 65.04070189937516 128.49254196071703 44.577136523581984 H 0.0 **** 0.06
8535 H 65.38287023436877 128.11806893753877 46.283249992774984 H 0.0 **** 0.06
8536 C 74.00413091576544 132.87371943729343 29.314803426910885 C 0.0 **** -0.24
8537 H 74.28049952220047 132.66100746052803 30.347643645474875 H 0.0 **** 0.06
8538 H 74.67241958382564 133.63397520185842 28.909874611858243 H 0.0 **** 0.06
8539 H 72.9773976792698 133.23672452710267 29.281757759677703 H 0.0 **** 0.06
8540 H 74.0871145321594 131.96305291450975 28.721977921385758 H 0.0 **** 0.06
8541 C 92.50779023690868 128.61625262843066 75.75543587536572 C 0.0 **** -0.24
8542 H 91.77917898463849 128.8148187765681 74.9698131935088 H 0.0 **** 0.06
8543 H 92.08354900928116 127.91701672811436 76.4762114626169 H 0.0 **** 0.06
8544 H 92.76152704414378 129.54939322022844 76.25990315017117 H 0.0 **** 0.06
8545 H 93.40736388678836 128.18504187983896 75.31626571164986 H 0.0 **** 0.06
8546 C 8.370124321763939 3.0803696602164337 9.334899799959402 C 0.0 **** -0.24
8547 H 9.3262759662841 3.541459107343318 9.08890504863649 H 0.0 **** 0.06
8548 H 7.758147094997099 3.010941903221564 8.43570930446728 H 0.0 **** 0.06
8549 H 7.855863471146392 3.6869156310859026 10.080581818208117 H 0.0 **** 0.06
8550 H 8.542207425725138 2.0813270414386373 9.736480657746824 H 0.0 **** 0.06
8551 C 60.98976531570517 76.4451344558011 87.72725478845513 C 0.0 **** -0.24
8552 H 60.34588944864598 75.89498319278063 87.04125526914999 H 0.0 **** 0.06
8553 H 61.78105662586225 76.94065785608656 87.16445861509237 H 0.0 **** 0.06
8554 H 61.43183133334176 75.75330315034826 88.4445957118362 H 0.0 **** 0.06
8555 H 60.399253744589686 77.19143163271997 88.25966492091669 H 0.0 **** 0.06
8556 C 97.88298394328785 89.29183340201917 132.88109939445783 C 0.0 **** -0.24
8557 H 97.7592706102377 90.37079067083846 132.97496699702194 H 0.0 **** 0.06
8558 H 97.05153545335384 88.78691943907583 133.37458218835877 H 0.0 **** 0.06
8559 H 98.82075081850996 88.99163020522383 133.3497210647815 H 0.0 **** 0.06
8560 H 97.90034777711509 89.01902018467706 131.8260992395193 H 0.0 **** 0.06
8561 C 141.86968525944255 110.09416400874396 47.381781833488105 C 0.0 **** -0.24
8562 H 142.75165833046663 109.75988151623157 47.925778618671885 H 0.0 **** 0.06
8563 H 141.50112132310244 109.28276452778381 46.753630232934285 H 0.0 **** 0.06
8564 H 142.13039099268568 110.94792369501916 46.75564059451446 H 0.0 **** 0.06
8565 H 141.09485688887557 110.38669137980476 48.08981403059397 H 0.0 **** 0.06
8566 C 48.036218066191395 56.04264429088636 6.136446830638924 C 0.0 **** -0.24
8567 H 48.29942938025084 56.6299389735256 5.256523156687358 H 0.0 **** 0.06
8568 H 48.102781420063764 54.98111378860696 5.896921815258253 H 0.0 **** 0.06
8569 H 47.017684485590905 56.28305960252362 6.442678374124593 H 0.0 **** 0.06
8570 H 48.72474987136384 56.27623263624331 6.948287528137691 H 0.0 **** 0.06
8571 C 137.2513879127182 76.09616978877497 108.86156093754434 C 0.0 **** -0.24
8572 H 137.8791646979885 76.82402417940884 109.37543561425898 H 0.0 **** 0.06
8573 H 137.45719577814256 75.09969295937881 109.25111183596502 H 0.0 **** 0.06
8574 H 137.46670762244997 76.12106706652742 107.79324288911388 H 0.0 **** 0.06
8575 H 136.20182067199903 76.34193201375402 109.02581217881183 H 0.0 **** 0.06
8576 C 83.37378793206655 38.96422569320009 9.489978509971628 C 0.0 **** -0.24
8577 H 82.6265932988972 39.7257169190605 9.712131979728063 H 0.0 **** 0.06
8578 H 84.01116902446647 38.81613321448643 10.362850748120032 H 0.0 **** 0.06
8579 H 83.9822993130108 39.28648044210175 8.645926612852676 H 0.0 **** 0.06
8580 H 82.87431942253272 38.02702455512073 9.241456487517027 H 0.0 **** 0.06
8581 C 136.65356969566093 109.4978012421417 33.46281941419048 C 0.0 **** -0.24
8582 H 136.72734748873793 108.41020655490543 33.46122600725215 H 0.0 **** 0.06
8583 H 137.5794398823441 109.92430121995328 33.85120343133829 H 0.0 **** 0.06
8584 H 135.81913293165127 109.80417487863063 34.09294427407224 H 0.0 **** 0.06
8585 H 136.48964035828027 109.85180145253521 32.44498891618338 H 0.0 **** 0.06
8586 C 109.24074228753074 71.85100169645187 20.527981041287575 C 0.0 **** -0.24
8587 H 110.03589280275713 71.36920400387751 21.09646368355132 H 0.0 **** 0.06
8588 H 108.86184937434479 71.15863037526259 19.775881957591707 H 0.0 **** 0.06
8589 H 109.63356743873987 72.74182832385875 20.0375840299574 H 0.0 **** 0.06
8590 H 108.43239549313569 72.13385544766894 21.20246315591791 H 0.0 **** 0.06
8591 C 82.01309963725049 130.35674933842188 122.75709036688525 C 0.0 **** -0.24
8592 H 82.48161297675003 131.22775128385638 123.21361494561111 H 0.0 **** 0.06
8593 H 81.28112396676515 130.6831910373014 122.01709887251458 H 0.0 **** 0.06
8594 H 81.51451574329057 129.76795687943658 123.52643190073096 H 0.0 **** 0.06
8595 H 82.77504390656982 129.74766754596033 122.26987251753853 H 0.0 **** 0.06
8596 C 19.30898608783925 21.39761687715771 27.89054182589851 C 0.0 **** -0.24
8597 H 19.406728090481415 21.880162614673473 26.917420012394587 H 0.0 **** 0.06
8598 H 18.716214616528433 20.48956138953055 27.78762903709074 H 0.0 **** 0.06
8599 H 18.815456666542218 22.077810409912423 28.584964881583645 H 0.0 **** 0.06
8600 H 20.299164792422935 21.146082001670642 28.270944573172756 H 0.0 **** 0.06
8601 C 37.23105868779905 30.3497581748164 3.245270262294838 C 0.0 **** -0.24
8602 H 36.50359992429756 30.99595193388805 2.7524758473774966 H 0.0 **** 0.06
8603 H 37.06565838342138 30.372425207037026 4.321843895667513 H 0.0 **** 0.06
8604 H 38.238491339723936 30.70317619421806 3.0247525370813833 H 0.0 **** 0.06
8605 H 37.11595365714621 29.329663615598093 2.879784573284951 H 0.0 **** 0.06
8606 C 0.6650868111127011 129.69120091058653 92.78596239709597 C 0.0 **** -0.24
8607 H 1.0889815031345904 130.1635357327367 93.67229755620653 H 0.0 **** 0.06
8608 H 0.470106824177293 128.63948341000005 92.9925100736821 H 0.0 **** 0.06
8609 H 1.3689835088917164 129.7749532688286 91.95749639898347 H 0.0 **** 0.06
8610 H -0.2675871514271648 130.18871993653158 92.5209020725483 H 0.0 **** 0.06
8611 C 109.55068675269573 135.24975054155425 3.852762010577237 C 0.0 **** -0.24
8612 H 109.93242283574719 135.6048616162924 4.810036050849362 H 0.0 **** 0.06
8613 H 109.12823803334899 134.25285095539607 3.977040625897075 H 0.0 **** 0.06
8614 H 110.36420844733007 135.21335982719114 3.1294674745652173 H 0.0 **** 0.06
8615 H 108.77682117940887 135.93043650501335 3.496648784134834 H 0.0 **** 0.06
8616 C 18.57364666987357 87.95833990348224 38.49345308819593 C 0.0 **** -0.24
8617 H 18.390278929982458 88.62913496155583 39.331715027294656 H 0.0 **** 0.06
8618 H 17.91503163725116 88.22165233994039 37.66588152586858 H 0.0 **** 0.06
8619 H 18.377662030059 86.93080182914025 38.80127684030925 H 0.0 **** 0.06
8620 H 19.61275505195158 88.04995632668115 38.17430080397871 H 0.0 **** 0.06
8621 C 124.60014258172419 116.71906636901451 84.98569959532313 C 0.0 **** -0.24
8622 H 125.0857425523096 117.24116049400345 85.81031544637743 H 0.0 **** 0.06
8623 H 125.06981644886064 117.00880014043622 84.04527961852811 H 0.0 **** 0.06
8624 H 123.54325470921302 116.98441155531583 84.96098420846917 H 0.0 **** 0.06
8625 H 124.70102360745014 115.64257091965464 85.12627872700043 H 0.0 **** 0.06
8626 C 76.74937133839558 124.85602396323347 6.871334697663173 C 0.0 **** -0.24
8627 H 77.19662624233246 125.0519610269773 5.897802196400789 H 0.0 **** 0.06
8628 H 76.14220303436178 123.95170938601703 6.816765935425337 H 0.0 **** 0.06
8629 H 76.12086099137338 125.69907573910652 7.159390891952711 H 0.0 **** 0.06
8630 H 77.53775131571501 124.72050983666375 7.6125167803943725 H 0.0 **** 0.06
8631 C 18.17804208349841 28.657960943205097 111.42531781363789 C 0.0 **** -0.24
8632 H 17.45307037075301 29.31423528243991 111.90592770457454 H 0.0 **** 0.06
8633 H 18.73221996480447 29.218711539754707 110.67257380398814 H 0.0 **** 0.06
8634 H 17.65640180090807 27.827816481093762 110.94979867427321 H 0.0 **** 0.06
8635 H 18.869001359618295 28.271149952193042 112.17387669655261 H 0.0 **** 0.06
8636 C 66.82065507149947 43.56291064069757 104.71099299281653 C 0.0 **** -0.24
8637 H 66.96971426727626 44.58205876388746 104.35370267024749 H 0.0 **** 0.06
8638 H 67.44824119677627 42.88155757031342 104.13682704914689 H 0.0 **** 0.06
8639 H 65.77340430366775 43.28519864261432 104.58723993797229 H 0.0 **** 0.06
8640 H 67.08997357677211 43.504821626727505 105.76559581152482 H 0.0 **** 0.06
8641 C 85.84999868624685 62.753271056733354 141.5732030078419 C 0.0 **** -0.24
8642 H 86.16444062104532 63.679250014772094 142.05386411744942 H 0.0 **** 0.06
8643 H 85.56788159284436 62.026099063198615 142.33472105855614 H 0.0 **** 0.06
8644 H 86.6729173026276 62.35689469450375 140.97743151057088 H 0.0 **** 0.06
8645 H 84.99612116237589 62.95159264755176 140.92554290523427 H 0.0 **** 0.06
8646 C 10.706597176218402 52.23635498282516 68.17836180011182 C 0.0 **** -0.24
8647 H 9.93537700065847 51.690787822481255 67.63394574430055 H 0.0 **** 0.06
8648 H 10.237304417347708 52.882175414415144 68.9215046111662 H 0.0 **** 0.06
8649 H 11.28210644407006 52.84325144809601 67.48002476081473 H 0.0 **** 0.06
8650 H 11.368781038126464 51.52918099662665 68.67654080837411 H 0.0 **** 0.06
8651 C 21.30848843264303 31.126386457226374 51.5662722213915 C 0.0 **** -0.24
8652 H 21.088759523800633 30.665358583265572 50.60245404588001 H 0.0 **** 0.06
8653 H 22.109147371971034 31.855857028327762 51.44517790281175 H 0.0 **** 0.06
8654 H 21.61949616220832 30.35850578510116 52.27336647632248 H 0.0 **** 0.06
8655 H 20.41471716191964 31.625267555230153 51.94087662511902 H 0.0 **** 0.06
8656 C 107.78473779406467 111.24194500181063 136.9755590722775 C 0.0 **** -0.24
8657 H 106.84726018362547 111.39075415232473 137.51207234885493 H 0.0 **** 0.06
8658 H 108.59485257344294 111.10261691079883 137.69182553902382 H 0.0 **** 0.06
8659 H 107.99172254651033 112.11560965946985 136.35650630431374 H 0.0 **** 0.06
8660 H 107.70378621225892 110.35854030039836 136.3414258732278 H 0.0 **** 0.06
8661 C 0.2258756640284787 139.83712898003446 48.61726308392136 C 0.0 **** -0.24
8662 H 0.957019328430647 140.59560316100138 48.33457274452307 H 0.0 **** 0.06
8663 H -0.19532628824856602 140.08491588393954 49.59141063315775 H 0.0 **** 0.06
8664 H 0.7150146866042633 138.86447844725384 48.66817325154642 H 0.0 **** 0.06
8665 H -0.5693813392583706 139.8051652968514 47.87298055158324 H 0.0 **** 0.06
8666 C 69.94443606638517 131.42729785560408 114.71270038613187 C 0.0 **** -0.24
8667 H 69.48430095410427 131.75457779227148 113.78030271224316 H 0.0 **** 0.06
8668 H 69.18503499807748 130.98204767852036 115.35649324930182 H 0.0 **** 0.06
8669 H 70.39259977666518 132.28395489576906 115.21684910885631 H 0.0 **** 0.06
8670 H 70.7164389732992 130.6893669603359 114.49697983385596 H 0.0 **** 0.06
8671 C 134.47002127409618 71.7903557366082 7.73574990165929 C 0.0 **** -0.24
8672 H 134.03981350308698 72.39960483951971 6.939905841834673 H 0.0 **** 0.06
8673 H 134.54768928250326 72.38460402623396 8.646315415773188 H 0.0 **** 0.06
8674 H 135.46233242658306 71.45096929634317 7.437124118648285 H 0.0 **** 0.06
8675 H 133.83039314472524 70.9271177296504 7.917370000752442 H 0.0 **** 0.06
8676 C 115.43321248615452 61.64582497920637 55.18189822291585 C 0.0 **** -0.24
8677 H 114.50701681073663 61.892800177117664 55.70131591795625 H 0.0 **** 0.06
8678 H 115.22149994360008 61.473449094908545 54.1266744327998 H 0.0 **** 0.06
8679 H 115.86531477341008 60.74528158229671 55.617822623920574 H 0.0 **** 0.06
8680 H 116.136588130813 62.47148531276497 55.281895924974734 H 0.0 **** 0.06
8681 C 71.19736948879155 2.6888583934819508 29.945292310917957 C 0.0 **** -0.24
8682 H 70.87192833124114 3.1579623497736975 29.01697964185935 H 0.0 **** 0.06
8683 H 70.59961755879414 3.0685353647672287 30.77413846019794 H 0.0 **** 0.06
8684 H 72.24898705226664 2.9194877195683944 30.119112801666702 H 0.0 **** 0.06
8685 H 71.07015745479596 1.608260390763462 29.87059284350689 H 0.0 **** 0.06
8686 C 101.27883698702897 106.23740553027761 50.78128587062889 C 0.0 **** -0.24
8687 H 100.28345197645638 106.65964441246348 50.92117127809104 H 0.0 **** 0.06
8688 H 101.26109588327256 105.17653901018105 51.03009374185581 H 0.0 **** 0.06
8689 H 101.98581549476327 106.75169063943127 51.43266451193443 H 0.0 **** 0.06
8690 H 101.58428157471121 106.36265743427191 49.743132027665695 H 0.0 **** 0.06
8691 C 126.24294887551596 27.983141578777662 93.98191573240945 C 0.0 **** -0.24
8692 H 125.3018230502121 28.430268458654126 93.66099572102567 H 0.0 **** 0.06
8693 H 126.42637853597793 27.07392499383559 93.40858188690473 H 0.0 **** 0.06
8694 H 126.18556050869975 27.74004280946926 95.0423573426798 H 0.0 **** 0.06
8695 H 127.05568830701603 28.68894440849016 93.81346445229488 H 0.0 **** 0.06
8696 C 65.60457376477632 23.033176348776948 144.25545180287094 C 0.0 **** -0.24
8697 H 65.12044372992278 23.886348795407997 143.77943624022998 H 0.0 **** 0.06
8698 H 64.86382541564393 22.462452638884876 144.8148158994636 H 0.0 **** 0.06
8699 H 66.37927090634571 23.389239014572176 144.93566476940893 H 0.0 **** 0.06
8700 H 66.05416895083903 22.398345602345678 143.49222184446174 H 0.0 **** 0.06
8701 C 80.5646411517979 66.9811268447501 2.3598428338344206 C 0.0 **** -0.24
8702 H 79.82767741575435 66.17823073198917 2.351115373338189 H 0.0 **** 0.06
8703 H 81.51968796244876 66.60130013717688 1.9953387761678414 H 0.0 **** 0.06
8704 H 80.686860943532 67.35167421343797 3.377861934090447 H 0.0 **** 0.06
8705 H 80.22525713467462 67.79267118013746 1.7163809739699047 H 0.0 **** 0.06
8706 C 77.99499983362011 56.58667229582487 1.084502687405461 C 0.0 **** -0.24
8707 H 77.99869550295375 55.73551830743777 0.4037677047166426 H 0.0 **** 0.06
8708 H 78.68796528543537 57.345571621514836 0.7194428990511028 H 0.0 **** 0.06
8709 H 78.3032625497489 56.259519487027575 2.0774734984057943 H 0.0 **** 0.06
8710 H 76.98958167773074 57.00583255429193 1.1349402700848543 H 0.0 **** 0.06
8711 C 8.730338525588198 17.270826246999945 90.07033950101226 C 0.0 **** -0.24
8712 H 8.80896912096664 17.86209239239176 89.15788156643684 H 0.0 **** 0.06
8713 H 8.64833433615106 17.9382398367392 90.92841661017843 H 0.0 **** 0.06
8714 H 9.61755789158147 16.647723806510925 90.17747487731201 H 0.0 **** 0.06
8715 H 7.845344409775976 16.63711324897568 90.01713116287056 H 0.0 **** 0.06
8716 C 58.36416569214137 81.31559766136806 98.55912509453613 C 0.0 **** -0.24
8717 H 59.328316582115974 81.77784978741116 98.76951973502717 H 0.0 **** 0.06
8718 H 57.60049978863313 82.09020653052582 98.47919106412019 H 0.0 **** 0.06
8719 H 58.104228566720764 80.63225396728515 99.36717023874294 H 0.0 **** 0.06
8720 H 58.42248300347927 80.76325035521285 97.62120535144525 H 0.0 **** 0.06
8721 C 96.8645476266882 79.29746522077708 67.46704348652489 C 0.0 **** -0.24
8722 H 97.67587778557755 79.78458580813333 66.92501778887453 H 0.0 **** 0.06
8723 H 96.11095268375819 80.03852741811181 67.73384375830213 H 0.0 **** 0.06
8724 H 97.25740970981099 78.83655147919565 68.37230241252658 H 0.0 **** 0.06
8725 H 96.41407941060187 78.53221745325554 66.83563229097675 H 0.0 **** 0.06
8726 C 88.64757896965297 77.15595581137563 69.06143069252497 C 0.0 **** -0.24
8727 H 88.30603326128326 78.1693150649129 69.26971990922044 H 0.0 **** 0.06
8728 H 87.96258184225732 76.44057037248493 69.51595405086638 H 0.0 **** 0.06
8729 H 89.64698748780587 77.01685140418579 69.47563902841898 H 0.0 **** 0.06
8730 H 88.67657734063567 76.99775712087495 67.98337264023095 H 0.0 **** 0.06
8731 C 76.24634259109648 99.12834559107489 59.85602689748194 C 0.0 **** -0.24
8732 H 76.92171920866518 98.49581715811712 59.2812877961546 H 0.0 **** 0.06
8733 H 76.64063140508094 100.14535791671165 59.88931771730219 H 0.0 **** 0.06
8734 H 76.15901432185083 98.73871223866564 60.870394943488634 H 0.0 **** 0.06
8735 H 75.26410274915672 99.1352232928235 59.38316909521754 H 0.0 **** 0.06
8736 C 14.609258635520291 102.1782479286833 45.709452510222576 C 0.0 **** -0.24
8737 H 14.066804220273042 101.31934260786545 46.10348133624608 H 0.0 **** 0.06
8738 H 14.59764502300763 102.14755987144869 44.61966340658094 H 0.0 **** 0.06
8739 H 15.640834739439981 102.14975931833371 46.0627330079583 H 0.0 **** 0.06
8740 H 14.134257441011272 103.09779328058525 46.05269025105005 H 0.0 **** 0.06
8741 C 113.24707893088585 30.440888938770726 120.40636630716598 C 0.0 **** -0.24
8742 H 112.95177555843124 29.444837005584702 120.07621729440531 H 0.0 **** 0.06
8743 H 113.85773273840219 30.35851641325567 121.30580091593198 H 0.0 **** 0.06
8744 H 112.3563721909713 31.02974627432613 120.62412400106156 H 0.0 **** 0.06
8745 H 113.82158638961242 30.929094128869025 119.6199747301426 H 0.0 **** 0.06
8746 C 91.57867947134048 12.122802400161852 113.7718336392782 C 0.0 **** -0.24
8747 H 90.67586552084839 11.567280873235106 113.52014404220184 H 0.0 **** 0.06
8748 H 92.44280632543854 11.460012305084604 113.70763819743006 H 0.0 **** 0.06
8749 H 91.49462957185091 12.511595670850937 114.78692394396138 H 0.0 **** 0.06
8750 H 91.70366293220772 12.95097512726727 113.07409230101122 H 0.0 **** 0.06
8751 C 25.030769693987168 63.999385461258655 68.83607430756376 C 0.0 **** -0.24
8752 H 25.58770900669873 63.1764933730249 68.38717883897522 H 0.0 **** 0.06
8753 H 25.54753570711813 64.93864041017478 68.63709954242381 H 0.0 **** 0.06
8754 H 24.959483609298218 63.844326177509416 69.91220523310795 H 0.0 **** 0.06
8755 H 24.029915844752338 64.0374479501787 68.40742915939984 H 0.0 **** 0.06
8756 C 98.42432728393685 67.31469027007148 100.1050039704844 C 0.0 **** -0.24
8757 H 98.00933636333326 66.50459732160098 100.70519133529123 H 0.0 **** 0.06
8758 H 97.71799036497076 68.14466901885969 100.07655487541709 H 0.0 **** 0.06
8759 H 98.60724888645149 66.9583571718884 99.0906350225105 H 0.0 **** 0.06
8760 H 99.36234020169076 67.65025300871717 100.54660365779799 H 0.0 **** 0.06
8761 C 78.89544224832477 83.2800503936513 99.35345554206867 C 0.0 **** -0.24
8762 H 79.23181339751694 83.38087457811265 98.32179386791819 H 0.0 **** 0.06
8763 H 77.80624072937466 83.23769308342389 99.37776261673122 H 0.0 **** 0.06
8764 H 79.23878861075012 84.13666210704515 99.93303342426537 H 0.0 **** 0.06
8765 H 79.30401547710659 82.364218632629 99.78045553570698 H 0.0 **** 0.06
8766 C 37.45631797682731 123.73258537082766 53.1104612505835 C 0.0 **** -0.24
8767 H 37.74354561074304 124.64144759273823 53.63815490771016 H 0.0 **** 0.06
8768 H 36.53051843032512 123.90912709564758 52.562116329284436 H 0.0 **** 0.06
8769 H 37.304180839181726 122.92688117879106 53.83030084820291 H 0.0 **** 0.06
8770 H 38.24500496468812 123.45246430629469 52.413205301995276 H 0.0 **** 0.06
8771 C 41.53764487264553 123.69024408904664 53.09806617145189 C 0.0 **** -0.24
8772 H 42.597945401546355 123.71169531875655 52.84404141151862 H 0.0 **** 0.06
8773 H 41.02624504933263 122.97215622724724 52.456301431911754 H 0.0 **** 0.06
8774 H 41.10954481761826 124.68077786200428 52.94874094327568 H 0.0 **** 0.06
8775 H 41.42031239625996 123.39603082463546 54.14020218274716 H 0.0 **** 0.06
8776 C 137.7693123396419 106.84842182213161 21.792459636064166 C 0.0 **** -0.24
8777 H 137.2216853223861 107.1003655411577 22.701607582372105 H 0.0 **** 0.06
8778 H 138.5890709218275 106.17288967683952 22.039062819890262 H 0.0 **** 0.06
8779 H 138.1700701140397 107.75886050294424 21.346673233424383 H 0.0 **** 0.06
8780 H 137.09621739391994 106.36310593597206 21.08590138052932 H 0.0 **** 0.06
8781 C 0.01755596444277785 29.35058380544885 107.92931985925475 C 0.0 **** -0.24
8782 H -0.296531343139236 28.447619241960666 108.4524995986477 H 0.0 **** 0.06
8783 H 0.5277845613381658 30.015585945328837 108.62644814644028 H 0.0 **** 0.06
8784 H -0.8572397415310036 29.855565364345097 107.5198983337288 H 0.0 **** 0.06
8785 H 0.6948549475313541 29.0839482601518 107.11855884093092 H 0.0 **** 0.06
8786 C 103.27035782612712 9.37639258242266 87.76280116834727 C 0.0 **** -0.24
8787 H 103.70488304041672 10.376019799572454 87.75454509635071 H 0.0 **** 0.06
8788 H 102.60426401199996 9.277030423157633 88.61933607677292 H 0.0 **** 0.06
8789 H 104.06672811356165 8.635764184458193 87.83316322982458 H 0.0 **** 0.06
8790 H 102.70728302348435 9.218078857847978 86.84364265201214 H 0.0 **** 0.06
8791 C 122.22800543377595 59.228996193211984 47.161768495669605 C 0.0 **** -0.24
8792 H 123.28628597210333 59.09197936970544 46.9384332972175 H 0.0 **** 0.06
8793 H 122.09840321172727 60.123181233078085 47.77218008850235 H 0.0 **** 0.06
8794 H 121.85610947079037 58.36081745539201 47.70562873159065 H 0.0 **** 0.06
8795 H 121.67260390371011 59.34031212903895 46.23082017588075 H 0.0 **** 0.06
8796 C 109.84036908662883 10.286386065494185 98.20052583978341 C 0.0 **** -0.24
8797 H 109.68635671104634 11.217181925289196 98.74667157484717 H 0.0 **** 0.06
8798 H 110.31669421529598 9.556057989876479 98.85550310713879 H 0.0 **** 0.06
8799 H 110.47985134339378 10.47297788095517 97.33826149687744 H 0.0 **** 0.06
8800 H 108.8781085744986 9.899985262994505 97.86398009100134 H 0.0 **** 0.06
8801 C 71.45313996978373 102.67350463151251 60.19891807208177 C 0.0 **** -0.24
8802 H 70.79972392464944 102.48171693555118 59.348319570462806 H 0.0 **** 0.06
8803 H 72.34671405995996 103.19853475959445 59.859090656438525 H 0.0 **** 0.06
8804 H 71.73861800692768 101.72787290227693 60.65807463713436 H 0.0 **** 0.06
8805 H 70.92654866282814 103.28784765469061 60.92966711811157 H 0.0 **** 0.06
8806 C 135.55347697926067 43.876570601499836 29.95358219236249 C 0.0 **** -0.24
8807 H 135.92572521398432 44.63729519612532 30.63937969663857 H 0.0 **** 0.06
8808 H 134.76722120834492 43.30115839465289 30.44258992795494 H 0.0 **** 0.06
8809 H 136.37023302039967 43.21060011381269 29.672345912620017 H 0.0 **** 0.06
8810 H 135.15229998545794 44.35592249614672 29.06092119641403 H 0.0 **** 0.06
8811 C 139.9178557309285 10.47572731055584 77.56304681045971 C 0.0 **** -0.24
8812 H 139.2923499093316 10.612504704502612 76.67971029369954 H 0.0 **** 0.06
8813 H 140.7311585658447 9.789291623483052 77.32923190782815 H 0.0 **** 0.06
8814 H 139.31595104841287 10.065004986725 78.37365819762937 H 0.0 **** 0.06
8815 H 140.3304716330508 11.438359886316107 77.86766231857271 H 0.0 **** 0.06
8816 C 50.26476800158993 43.79655596171156 16.854724995006535 C 0.0 **** -0.24
8817 H 50.888116539472506 43.93302521246105 17.737913310891514 H 0.0 **** 0.06
8818 H 49.58211202757862 42.96106793675301 17.01759483938457 H 0.0 **** 0.06
8819 H 50.89677090771829 43.58686046558782 15.992000239286227 H 0.0 **** 0.06
8820 H 49.6899449156854 44.70461664475661 16.672414496280936 H 0.0 **** 0.06
8821 C 55.70949279931261 24.51448560808796 70.16166233941749 C 0.0 **** -0.24
8822 H 56.79616228843358 24.59516051456974 70.17721404020054 H 0.0 **** 0.06
8823 H 55.284857367975775 25.40925729278233 69.70656314503906 H 0.0 **** 0.06
8824 H 55.33849898088965 24.415349768086053 71.18278361424971 H 0.0 **** 0.06
8825 H 55.41912739778074 23.63785163297642 69.58316110712427 H 0.0 **** 0.06
8826 C 5.298409849115359 22.600616947498708 37.08919899039856 C 0.0 **** -0.24
8827 H 5.673234279675171 21.96950425017019 36.283249043534425 H 0.0 **** 0.06
8828 H 5.130837966412514 23.60899999619366 36.71171633197875 H 0.0 **** 0.06
8829 H 6.030267144589118 22.630921542903735 37.895816859079986 H 0.0 **** 0.06
8830 H 4.360714027533362 22.191840388899664 37.46345304187193 H 0.0 **** 0.06
8831 C 57.76540216542949 65.77605233310922 73.33319203929094 C 0.0 **** -0.24
8832 H 58.71152677446476 66.24386569835647 73.0628187191598 H 0.0 **** 0.06
8833 H 57.85667364173776 65.31360771379101 74.31616884591634 H 0.0 **** 0.06
8834 H 57.514040108068954 65.01363497031988 72.59535072090412 H 0.0 **** 0.06
8835 H 56.98035286982913 66.53111806855347 73.35811570270292 H 0.0 **** 0.06
8836 C 67.22281188367987 51.405027142188885 92.97089948926009 C 0.0 **** -0.24
8837 H 68.0358493023455 52.103248736804375 93.1688960587137 H 0.0 **** 0.06
8838 H 67.07152654158006 51.320637456917524 91.89499243002763 H 0.0 **** 0.06
8839 H 66.30879168793126 51.77032416233402 93.43988786526023 H 0.0 **** 0.06
8840 H 67.47516773778483 50.427293597592296 93.38084401911402 H 0.0 **** 0.06
8841 C 55.98058778895138 29.458307253987684 70.66359933232938 C 0.0 **** -0.24
8842 H 55.39673520526182 29.076506734530312 69.8257727139817 H 0.0 **** 0.06
8843 H 55.83717615047796 30.536027485724496 70.74549028995114 H 0.0 **** 0.06
8844 H 57.03663217586161 29.244071242170463 70.49586701240453 H 0.0 **** 0.06
8845 H 55.65361554195616 28.9765973055174 71.58414780784176 H 0.0 **** 0.06
8846 C 99.71250907009573 10.564766870181089 142.83900416143362 C 0.0 **** -0.24
8847 H 98.7610357178613 10.669566143466554 142.31816978782857 H 0.0 **** 0.06
8848 H 100.38168494832276 9.93670739946215 142.25094987827688 H 0.0 **** 0.06
8849 H 99.54377255563082 10.104252213604049 143.81327733068846 H 0.0 **** 0.06
8850 H 100.16163284901602 11.548407640559816 142.9747743521307 H 0.0 **** 0.06
8851 C 136.09103860207193 122.92728000855922 107.47736104926976 C 0.0 **** -0.24
8852 H 136.20221453303688 122.63092474363614 106.43402534422329 H 0.0 **** 0.06
8853 H 135.73846916470572 122.07586593091335 108.06112627539123 H 0.0 **** 0.06
8854 H 135.37022847111155 123.74126466480735 107.54978065638134 H 0.0 **** 0.06
8855 H 137.05434913601886 123.25857626196708 107.86527535480262 H 0.0 **** 0.06
8856 C 36.81908379310926 12.425719936294144 89.95679896710851 C 0.0 **** -0.24
8857 H 35.78369049246618 12.084603494125219 89.95928805300495 H 0.0 **** 0.06
8858 H 36.85348674341776 13.481948111721152 90.22561938478027 H 0.0 **** 0.06
8859 H 37.24363578252212 12.289198022372688 88.96291657476465 H 0.0 **** 0.06
8860 H 37.393202793470294 11.846787437286281 90.68008136227981 H 0.0 **** 0.06
8861 C 99.46815500448322 3.2093110592940093 53.65078754861071 C 0.0 **** -0.24
8862 H 98.86324262389925 4.084932505852294 53.41616024371922 H 0.0 **** 0.06
8863 H 99.52878118420017 3.0873800464054284 54.732483537777455 H 0.0 **** 0.06
8864 H 100.47100790052137 3.3419652486851987 53.24369926337906 H 0.0 **** 0.06
8865 H 99.01110402021713 2.323615585434311 53.2102767187867 H 0.0 **** 0.06
8866 C 104.22616156624234 131.9562947593949 13.674945496683705 C 0.0 **** -0.24
8867 H 104.71895260082154 131.79895837655332 14.634639290279523 H 0.0 **** 0.06
8868 H 104.56796440879754 131.2036985500618 12.964225671516346 H 0.0 **** 0.06
8869 H 104.47176518172394 132.94937494135482 13.3000635587224 H 0.0 **** 0.06
8870 H 103.14700255724831 131.87301624461978 13.80348115719329 H 0.0 **** 0.06
8871 C 135.88357970001903 21.123473686699498 18.97631717310898 C 0.0 **** -0.24
8872 H 136.37589740877127 21.507977826488002 19.870190646152935 H 0.0 **** 0.06
8873 H 135.95072408021528 21.863588316650777 18.17846512188433 H 0.0 **** 0.06
8874 H 134.8359446719178 20.920524136860195 19.198250089273728 H 0.0 **** 0.06
8875 H 136.37347379754598 20.20195214247184 18.660602512602367 H 0.0 **** 0.06
8876 C 117.06776880141592 0.17840234950335798 4.446005509543539 C 0.0 **** -0.24
8877 H 116.30462232836095 -0.10314958102796368 3.721046318008945 H 0.0 **** 0.06
8878 H 116.74359961640062 1.0692094379324146 4.985750864068791 H 0.0 **** 0.06
8879 H 118.00229007082152 0.3885075021640034 3.9259019496483916 H 0.0 **** 0.06
8880 H 117.21949170953735 -0.6387785498762355 5.151002971374112 H 0.0 **** 0.06
8881 C 86.52595176322853 145.34841641800546 10.081535801332564 C 0.0 **** -0.24
8882 H 87.48035615025576 145.66639373740924 9.661474374956072 H 0.0 **** 0.06
8883 H 86.69420298168986 144.54873301174945 10.803025152909015 H 0.0 **** 0.06
8884 H 85.87974462824657 144.98670083641798 9.281805179003925 H 0.0 **** 0.06
8885 H 86.04853254345127 146.19286315915843 10.5788350031537 H 0.0 **** 0.06
8886 C 140.12769698024888 73.07939141168752 104.90250792425826 C 0.0 **** -0.24
8887 H 140.39173612860617 73.91370293298735 105.55218976964383 H 0.0 **** 0.06
8888 H 141.02670877628202 72.51867046141392 104.64784996582281 H 0.0 **** 0.06
8889 H 139.66507870752343 73.46037361874303 103.99157772638395 H 0.0 **** 0.06
8890 H 139.42601912660038 72.42500197498443 105.41996861045712 H 0.0 **** 0.06
8891 C 136.72843855885216 25.208118784749104 106.45349397304938 C 0.0 **** -0.24
8892 H 136.78281424304544 25.498008310313992 105.40467549649111 H 0.0 **** 0.06
8893 H 137.37548556601706 24.3476609078526 106.62711239665606 H 0.0 **** 0.06
8894 H 135.69987270395322 24.94608802034662 106.70435273764303 H 0.0 **** 0.06
8895 H 137.0536471640834 26.039645445535626 107.07816319881334 H 0.0 **** 0.06
8896 C 3.1842091919972404 128.98703333243702 88.17199429901862 C 0.0 **** -0.24
8897 H 2.946527135472106 130.02409261363013 88.41102615508139 H 0.0 **** 0.06
8898 H 3.434378971728755 128.90620666339993 87.11427173698117 H 0.0 **** 0.06
8899 H 2.3220527993243536 128.3568877725755 88.39101903740908 H 0.0 **** 0.06
8900 H 4.0334627970710635 128.66203323770978 88.77246421446208 H 0.0 **** 0.06
8901 C 116.79465575375069 120.67917100340692 112.56509409591088 C 0.0 **** -0.24
8902 H 116.62019460067167 121.03623952751819 111.5499924837108 H 0.0 **** 0.06
8903 H 115.86881959357238 120.74389084296287 113.13763203311434 H 0.0 **** 0.06
8904 H 117.55943240740363 121.29366376825321 113.04027955067569 H 0.0 **** 0.06
8905 H 117.13017641335487 119.64288987489341 112.53247231614255 H 0.0 **** 0.06
8906 C 31.328315879040048 36.003446554331276 11.864306709222838 C 0.0 **** -0.24
8907 H 31.147473318718568 36.19045950697705 10.8055635662785 H 0.0 **** 0.06
8908 H 30.40690489417969 35.65814106977419 12.333718933908777 H 0.0 **** 0.06
8909 H 31.658426616662894 36.92464002655697 12.344593488479532 H 0.0 **** 0.06
8910 H 32.09978552696279 35.24095873925393 11.971809318241561 H 0.0 **** 0.06
8911 C 93.5069923964978 102.45739368061616 108.04168590962114 C 0.0 **** -0.24
8912 H 92.96725380362867 101.85897048089166 108.77650417143163 H 0.0 **** 0.06
8913 H 94.10453814999332 101.80154185760148 107.40817318338149 H 0.0 **** 0.06
8914 H 94.16038355893923 103.16086651241046 108.5567624246339 H 0.0 **** 0.06
8915 H 92.79389446090323 103.00668566881781 107.42706770513597 H 0.0 **** 0.06
8916 C 27.115892341123967 141.04913171058175 121.68522686930345 C 0.0 **** -0.24
8917 H 26.369024619140568 140.4832537472909 122.24211791369737 H 0.0 **** 0.06
8918 H 28.02208242691207 141.14114597713947 122.28291051964607 H 0.0 **** 0.06
8919 H 26.725198779128903 142.04169182348159 121.46066091989758 H 0.0 **** 0.06
8920 H 27.34447557913098 140.53023296439872 120.75412875088841 H 0.0 **** 0.06
8921 C 122.74094529556828 10.288642870819274 101.45556059910052 C 0.0 **** -0.24
8922 H 123.52424291979285 10.851037172474093 100.94724142437958 H 0.0 **** 0.06
8923 H 122.45966896601114 10.805751077704599 102.37319649954269 H 0.0 **** 0.06
8924 H 123.10958236823146 9.291662402928978 101.69788800747442 H 0.0 **** 0.06
8925 H 121.87196640260181 10.206725092920294 100.80301401992836 H 0.0 **** 0.06
8926 C 16.905898400457545 11.801766077169816 50.095380255693726 C 0.0 **** -0.24
8927 H 17.551250663967323 12.660672638344266 50.279488569727036 H 0.0 **** 0.06
8928 H 16.10885333839792 12.086387877502432 49.40911029473517 H 0.0 **** 0.06
8929 H 16.471341639220043 11.465136613349983 51.037424303205654 H 0.0 **** 0.06
8930 H 17.49273156068091 10.994600583520338 49.6576399464998 H 0.0 **** 0.06
8931 C 102.37887478894913 24.009679808732102 80.59449577768927 C 0.0 **** -0.24
8932 H 102.76408248223578 25.029398515326278 80.56362936798273 H 0.0 **** 0.06
8933 H 103.03351527535727 23.357167387041102 80.01732141813876 H 0.0 **** 0.06
8934 H 101.37629593517096 23.988160960717437 80.16778573518604 H 0.0 **** 0.06
8935 H 102.34192102715261 23.667208500870032 81.6284999879004 H 0.0 **** 0.06
8936 C 123.18216139998142 52.347404307184604 67.5831974447209 C 0.0 **** -0.24
8937 H 122.34395012628683 52.99844465960143 67.82820794615998 H 0.0 **** 0.06
8938 H 122.80616611195224 51.38652636069345 67.23085947874998 H 0.0 **** 0.06
8939 H 123.7950727020588 52.1940890318032 68.47151161536979 H 0.0 **** 0.06
8940 H 123.78568871308121 52.810422569024595 66.8022167868023 H 0.0 **** 0.06
8941 C 79.31480510600284 28.49386398900475 112.853577320645 C 0.0 **** -0.24
8942 H 78.84220880621763 28.717681561678972 113.8099215709608 H 0.0 **** 0.06
8943 H 79.07099603354513 27.473530317449672 112.5575667917717 H 0.0 **** 0.06
8944 H 80.39573335479662 28.595795631286165 112.95012760994558 H 0.0 **** 0.06
8945 H 78.95079268705791 29.189274559533885 112.0969320827856 H 0.0 **** 0.06
8946 C 63.265243741441026 80.13031952924769 60.60605477467821 C 0.0 **** -0.24
8947 H 62.259390378683065 79.7408289620557 60.447177360894955 H 0.0 **** 0.06
8948 H 63.95548417108046 79.30135942825825 60.766214841980826 H 0.0 **** 0.06
8949 H 63.26833102298747 80.78149319019434 61.480583939735084 H 0.0 **** 0.06
8950 H 63.576641175663156 80.6981581277295 59.72960121764558 H 0.0 **** 0.06
8951 C 101.48317110446895 14.940516714420276 63.99414364551012 C 0.0 **** -0.24
8952 H 101.47307934414295 14.648332634667511 62.9439738848163 H 0.0 **** 0.06
8953 H 101.88764600284034 14.125265215368273 64.59339143457007 H 0.0 **** 0.06
8954 H 100.46741846446851 15.162332634286514 64.31943291708458 H 0.0 **** 0.06
8955 H 102.10608376808595 15.825999211998159 64.11787895237364 H 0.0 **** 0.06
8956 C 82.01071782751592 41.11050397569938 97.18806883954841 C 0.0 **** -0.24
8957 H 81.49236259256793 41.859534337241485 96.59002767601618 H 0.0 **** 0.06
8958 H 82.9402325183857 41.53165685958194 97.57216078017444 H 0.0 **** 0.06
8959 H 82.2344080641555 40.24186320678821 96.56782385537645 H 0.0 **** 0.06
8960 H 81.37654119032703 40.80800438509414 98.02098591698285 H 0.0 **** 0.06
8961 C 5.8983825826915535 91.04450867132306 5.566237189516045 C 0.0 **** -0.24
8962 H 6.858117570925209 91.47736615829828 5.283507535172646 H 0.0 **** 0.06
8963 H 5.093789078314792 91.70900212324044 5.251914704105474 H 0.0 **** 0.06
8964 H 5.862292638737394 90.9164814972625 6.648819068105581 H 0.0 **** 0.06
8965 H 5.779973444817099 90.07556610736302 5.081908322402626 H 0.0 **** 0.06
8966 C 81.88568558928587 18.025256861145095 68.3872230709299 C 0.0 **** -0.24
8967 H 82.45492607125723 17.54964119498922 67.58797845941297 H 0.0 **** 0.06
8968 H 80.85423710466007 17.671944680431466 68.3571982627692 H 0.0 **** 0.06
8969 H 81.90386854536071 19.106464470132607 68.25235885124897 H 0.0 **** 0.06
8970 H 82.32886695865801 17.771164652156045 69.34994125728616 H 0.0 **** 0.06
8971 C 7.9390361584742095 60.499033053453175 87.34130542900809 C 0.0 **** -0.24
8972 H 8.865388937247928 61.05238053969764 87.18639256738655 H 0.0 **** 0.06
8973 H 8.133648720929614 59.43033799800992 87.2414715362948 H 0.0 **** 0.06
8974 H 7.2036472527977935 60.80618117984389 86.59765760623185 H 0.0 **** 0.06
8975 H 7.553459722921559 60.70723249626104 88.33970000611907 H 0.0 **** 0.06
8976 C 49.25298475017125 43.809578289934535 81.43142218935691 C 0.0 **** -0.24
8977 H 48.86535618663541 43.201750725869914 80.61506224398624 H 0.0 **** 0.06
8978 H 48.65978048342576 44.72044421231848 81.52018549546176 H 0.0 **** 0.06
8979 H 50.29165022080976 44.070248362506106 81.22854527486413 H 0.0 **** 0.06
8980 H 49.195550661049325 43.24615080259946 82.36355777761497 H 0.0 **** 0.06
8981 C 56.9001327103924 11.5897246595826 73.32799026809938 C 0.0 **** -0.24
8982 H 56.27086890344097 12.224313401375582 73.95151818130158 H 0.0 **** 0.06
8983 H 57.913043376804836 11.572789403074268 73.73182083906853 H 0.0 **** 0.06
8984 H 56.92027137487614 11.983800824370832 72.31259859654504 H 0.0 **** 0.06
8985 H 56.496339337205484 10.576877068683046 73.31796004142352 H 0.0 **** 0.06
8986 C 106.17838344710624 23.359534565654883 120.27366229874173 C 0.0 **** -0.24
8987 H 106.45747793554615 23.878835815488287 119.35668825971015 H 0.0 **** 0.06
8988 H 105.92890401602533 24.091399715314424 121.04303567158752 H 0.0 **** 0.06
8989 H 107.01309276306559 22.745659694213714 120.61166212775231 H 0.0 **** 0.06
8990 H 105.31377259093397 22.72396767033996 120.08186893797273 H 0.0 **** 0.06
8991 C 116.08275509093559 30.91495998390876 84.04309117106048 C 0.0 **** -0.24
8992 H 116.51944202698988 29.966966574604157 83.72889710312116 H 0.0 **** 0.06
8993 H 114.99558180618558 30.840750592453958 84.01898497728902 H 0.0 **** 0.06
8994 H 116.40868135487713 31.706133485582654 83.3673519551489 H 0.0 **** 0.06
8995 H 116.40903929199308 31.145854646103146 85.05703355632522 H 0.0 **** 0.06
8996 C 85.28547256715359 20.3852081750137 136.65259615291993 C 0.0 **** -0.24
8997 H 85.00679425848864 19.338369312260028 136.77467689155313 H 0.0 **** 0.06
8998 H 85.9122771649611 20.49334514734292 135.76713733953818 H 0.0 **** 0.06
8999 H 85.83664499132513 20.71879567814824 137.53143982729225 H 0.0 **** 0.06
9000 H 84.38510663979972 20.989403918534663 136.53699927046227 H 0.0 **** 0.06
9001 C 62.3598050418629 2.5877296246505495 67.76806827101873 C 0.0 **** -0.24
9002 H 62.50328261993019 2.398764296013951 66.70428813503844 H 0.0 **** 0.06
9003 H 62.551154655544735 1.6719617416264931 68.32825078375902 H 0.0 **** 0.06
9004 H 61.33528745877118 2.915364636890992 67.94460415693484 H 0.0 **** 0.06
9005 H 63.05086384072098 3.3647415058317307 68.09547655905621 H 0.0 **** 0.06
9006 C 112.93167519923509 70.24674067864302 95.81367424946107 C 0.0 **** -0.24
9007 H 113.27270903077363 69.34268460286458 96.3179275834798 H 0.0 **** 0.06
9008 H 112.44139772403378 69.97746645936624 94.87681759189009 H 0.0 **** 0.06
9009 H 113.78614370671016 70.89051653461192 95.60403853858357 H 0.0 **** 0.06
9010 H 112.22658889440561 70.77581504651161 96.45425483157605 H 0.0 **** 0.06
9011 C 44.3031497543426 37.25144607059413 30.640207825895146 C 0.0 **** -0.24
9012 H 45.08673255899535 37.280263621697905 29.883577533524573 H 0.0 **** 0.06
9013 H 44.608252080316134 37.84599928545409 31.50148417750657 H 0.0 **** 0.06
9014 H 44.13499963600137 36.22077761366326 30.95064930930745 H 0.0 **** 0.06
9015 H 43.38188506268048 37.66107611285585 30.2249530482664 H 0.0 **** 0.06
9016 C 32.076590979350236 107.33997047666762 114.23905593071551 C 0.0 **** -0.24
9017 H 32.4340781780414 106.95956792403419 113.28269320936057 H 0.0 **** 0.06
9018 H 31.55059790124934 106.54772455129947 114.77096902031617 H 0.0 **** 0.06
9019 H 31.398352199133562 108.17565020560525 114.06698199707138 H 0.0 **** 0.06
9020 H 32.925056447715356 107.67713023061239 114.8356291495851 H 0.0 **** 0.06
9021 C 21.087495793152776 96.33235253489491 133.02375521483486 C 0.0 **** -0.24
9022 H 21.24990453423605 97.39594121021554 133.19801772075024 H 0.0 **** 0.06
9023 H 20.316108194818334 96.20178483574819 132.26421773451818 H 0.0 **** 0.06
9024 H 20.76833415378927 95.85707714198676 133.95083288520826 H 0.0 **** 0.06
9025 H 22.015636289767478 95.87460695162899 132.68195251886274 H 0.0 **** 0.06
9026 C 74.7542715480597 68.3888480308965 89.4986255079974 C 0.0 **** -0.24
9027 H 74.58266928422137 69.01406904830918 88.62211009922733 H 0.0 **** 0.06
9028 H 75.24469847345654 67.46357930733654 89.19421268117854 H 0.0 **** 0.06
9029 H 73.80036018940274 68.15586670582955 89.97177846250061 H 0.0 **** 0.06
9030 H 75.39028000698897 68.92225166133079 90.20630041859992 H 0.0 **** 0.06
9031 C 98.93361298268871 122.09376972337063 41.76772941609961 C 0.0 **** -0.24
9032 H 98.1462545516566 122.51376205731512 42.39391952439139 H 0.0 **** 0.06
9033 H 98.6428849240692 121.09482162577123 41.440127733686424 H 0.0 **** 0.06
9034 H 99.85955641620703 122.03420254149339 42.33993079263219 H 0.0 **** 0.06
9035 H 99.08476934094423 122.73227356667567 40.89710118746265 H 0.0 **** 0.06
9036 C 100.48172886801107 109.3687844926488 38.84383618111542 C 0.0 **** -0.24
9037 H 100.54678350942385 110.43456653432453 39.063377610659956 H 0.0 **** 0.06
9038 H 101.48520263653042 108.96375590483238 38.71285092201623 H 0.0 **** 0.06
9039 H 99.90760751073745 109.22155601677501 37.92892670455751 H 0.0 **** 0.06
9040 H 99.98758899278889 108.85847010867631 39.66940133571816 H 0.0 **** 0.06
9041 C 42.815421738556324 79.2386432671484 99.12638621937653 C 0.0 **** -0.24
9042 H 42.39259320123483 78.99117041839693 100.09997448182689 H 0.0 **** 0.06
9043 H 43.43197635781479 78.41015929459375 98.77694004539775 H 0.0 **** 0.06
9044 H 43.427982303932026 80.1354075171045 99.21350270619483 H 0.0 **** 0.06
9045 H 42.00849319260976 79.41658064070498 98.4152395905371 H 0.0 **** 0.06
9046 C 122.21319621287884 118.84088157460403 10.471365545756214 C 0.0 **** -0.24
9047 H 121.46501914974479 119.57777916707758 10.763081001862645 H 0.0 **** 0.06
9048 H 122.38885800188254 118.15543304733868 11.300438007507978 H 0.0 **** 0.06
9049 H 123.14246409718592 119.3496444114165 10.21623529692198 H 0.0 **** 0.06
9050 H 121.85448058419783 118.28253564132856 9.60699826897212 H 0.0 **** 0.06
9051 C 75.17951344027307 116.16699402932072 49.16894893391559 C 0.0 **** -0.24
9052 H 74.1687552282715 116.52610190457132 48.977998098920196 H 0.0 **** 0.06
9053 H 75.34090433399149 116.0947144893879 50.2450003221233 H 0.0 **** 0.06
9054 H 75.90033378954712 116.86183649543652 48.73879449884541 H 0.0 **** 0.06
9055 H 75.30714563211205 115.18364220831204 48.71553174285144 H 0.0 **** 0.06
9056 C 93.18912500778941 105.7305324203117 3.700895286893399 C 0.0 **** -0.24
9057 H 93.37756295310362 106.78931026567761 3.522360909008512 H 0.0 **** 0.06
9058 H 92.86862873959905 105.58780982215598 4.733218069739962 H 0.0 **** 0.06
9059 H 94.10223419012317 105.1637379895256 3.5215031141765962 H 0.0 **** 0.06
9060 H 92.40726372571822 105.38162246995114 3.0269682580955077 H 0.0 **** 0.06
9061 C 69.06394562715334 132.44574702404842 88.8896302896382 C 0.0 **** -0.24
9062 H 70.01375497337256 132.02168066540298 89.21628584322474 H 0.0 **** 0.06
9063 H 68.29440929544714 132.22886883724948 89.63077710436579 H 0.0 **** 0.06
9064 H 68.78121088169576 132.00915114382772 87.93135839204041 H 0.0 **** 0.06
9065 H 69.16825317114801 133.52582688036355 88.77971942047526 H 0.0 **** 0.06
9066 C 73.70289993479422 103.41251533296617 98.87068060942786 C 0.0 **** -0.24
9067 H 73.95024779331403 102.35412383453871 98.95285341754617 H 0.0 **** 0.06
9068 H 74.12630056827057 103.81274818975928 97.94960436464726 H 0.0 **** 0.06
9069 H 74.11567665248892 103.94980148565702 99.72458041174802 H 0.0 **** 0.06
9070 H 72.61938264950717 103.53146928601416 98.8551191491329 H 0.0 **** 0.06
9071 C 135.212796269747 94.88236916077679 22.678998248053382 C 0.0 **** -0.24
9072 H 135.72814805975594 94.0175817002245 22.26091681710161 H 0.0 **** 0.06
9073 H 134.19198914458988 94.91661948497037 22.296006467990324 H 0.0 **** 0.06
9074 H 135.73904134505827 95.79276724013035 22.39269711665031 H 0.0 **** 0.06
9075 H 135.19089781024007 94.8017006432754 23.766028131188982 H 0.0 **** 0.06
9076 C 51.59788844138603 89.40566132653923 132.48727626208438 C 0.0 **** -0.24
9077 H 50.74857334258955 89.6163116391009 133.13775549857786 H 0.0 **** 0.06
9078 H 52.43794780289089 90.03981132878674 132.77066105777544 H 0.0 **** 0.06
9079 H 51.321971184625994 89.60886159670093 131.45277870656983 H 0.0 **** 0.06
9080 H 51.8816581617093 88.35844403411242 132.58855585559593 H 0.0 **** 0.06
9081 C 81.873401257712 19.129103745797977 5.896257523023024 C 0.0 **** -0.24
9082 H 82.91238283934226 18.79896601258818 5.906662690736027 H 0.0 **** 0.06
9083 H 81.82762145583501 20.190622719684733 6.141670684499729 H 0.0 **** 0.06
9084 H 81.30446517997005 18.560645715767357 6.630928222857079 H 0.0 **** 0.06
9085 H 81.45101544848917 18.9668847682618 4.904364812795222 H 0.0 **** 0.06
9086 C 43.423937785502844 138.9846911159065 33.155302718134415 C 0.0 **** -0.24
9087 H 44.257429617672074 139.68609476308146 33.14539676890416 H 0.0 **** 0.06
9088 H 42.4972071899262 139.51916061175504 32.94610983093708 H 0.0 **** 0.06
9089 H 43.358165173754855 138.5132366427834 34.136071068557705 H 0.0 **** 0.06
9090 H 43.58292123596239 138.22035550579434 32.3950447312008 H 0.0 **** 0.06
9091 C 69.28150257188031 114.66106468363522 55.119980285162484 C 0.0 **** -0.24
9092 H 69.36479213946413 115.57371569549339 55.71050962091172 H 0.0 **** 0.06
9093 H 70.26145387486548 114.18813496470516 55.042974444198734 H 0.0 **** 0.06
9094 H 68.91582928764629 114.90554175196549 54.123080153026166 H 0.0 **** 0.06
9095 H 68.58481789194593 113.97771831292958 55.6054770287553 H 0.0 **** 0.06
9096 C 90.37764537155775 45.119869597511865 61.56697213760364 C 0.0 **** -0.24
9097 H 90.17630042697957 45.05423467057716 62.635755616285266 H 0.0 **** 0.06
9098 H 91.25317251462653 45.74825862511477 61.400919775061425 H 0.0 **** 0.06
9099 H 89.51580115698519 45.55495508792899 61.060796209286025 H 0.0 **** 0.06
9100 H 90.56519349640061 44.12168711885431 61.171349419931985 H 0.0 **** 0.06
9101 C 66.39965360459402 68.75709283251479 104.26356104993633 C 0.0 **** -0.24
9102 H 66.46107556299538 68.06609056394191 103.42227088321687 H 0.0 **** 0.06
9103 H 65.68466186916487 69.54639955527833 104.03310589537946 H 0.0 **** 0.06
9104 H 67.38133563655938 69.1967360252637 104.44416064326984 H 0.0 **** 0.06
9105 H 66.07380511898455 68.21834023075402 105.15265060838578 H 0.0 **** 0.06
9106 C 5.367835415302409 73.91228208084809 54.07340785190766 C 0.0 **** -0.24
9107 H 5.735809143396864 74.5409057474918 54.88391478649429 H 0.0 **** 0.06
9108 H 5.3227094481700306 74.49607145264149 53.153872357463044 H 0.0 **** 0.06
9109 H 4.370859337212892 73.54720824515483 54.32242339503088 H 0.0 **** 0.06
9110 H 6.04093132588514 73.06627490062631 53.935902852901876 H 0.0 **** 0.06
9111 C 114.57368396076343 105.40863420674731 134.03608796803775 C 0.0 **** -0.24
9112 H 114.17920535400039 104.62738521772155 134.68556431743121 H 0.0 **** 0.06
9113 H 115.65288225931222 105.28920841806473 133.93896216663217 H 0.0 **** 0.06
9114 H 114.3529095421287 106.38486913593425 134.46631681624552 H 0.0 **** 0.06
9115 H 114.10921972244468 105.33203110878355 133.05222674937735 H 0.0 **** 0.06
9116 C 47.12331079955089 21.766709828909207 15.32301130548501 C 0.0 **** -0.24
9117 H 46.871586806167386 22.484915152848465 14.54202213459854 H 0.0 **** 0.06
9118 H 47.07595993703643 22.257010332380702 16.29547684127698 H 0.0 **** 0.06
9119 H 48.131403751513346 21.387183884889744 15.155590984167816 H 0.0 **** 0.06
9120 H 46.41443366707006 20.938958301202696 15.297742248036116 H 0.0 **** 0.06
9121 C 11.19016278220866 128.18092794041277 18.420099192370742 C 0.0 **** -0.24
9122 H 10.272872866812492 127.82202545245404 17.95445870247508 H 0.0 **** 0.06
9123 H 11.030932941837818 128.3025088639994 19.49181130838474 H 0.0 **** 0.06
9124 H 11.46694534601636 129.14068823468762 17.98278977672672 H 0.0 **** 0.06
9125 H 11.990241359342036 127.46086191243813 18.250832993984176 H 0.0 **** 0.06
9126 C 26.138492573029737 108.51743491534468 114.28071357726586 C 0.0 **** -0.24
9127 H 26.836040024395118 108.34448057313615 113.46169269282788 H 0.0 **** 0.06
9128 H 25.312713947570103 107.80855520087796 114.2092700981008 H 0.0 **** 0.06
9129 H 25.75105853993739 109.53459890834928 114.21964645642575 H 0.0 **** 0.06
9130 H 26.65328098189127 108.38123968557638 115.23155038241086 H 0.0 **** 0.06
9131 C 28.13783884507805 7.759829846616107 48.446110376712184 C 0.0 **** -0.24
9132 H 27.084917697105865 7.801007737970526 48.167199396213704 H 0.0 **** 0.06
9133 H 28.727664363364006 8.320612613313923 47.7204751525113 H 0.0 **** 0.06
9134 H 28.46910818640015 6.721402956793266 48.4579475686823 H 0.0 **** 0.06
9135 H 28.268863825705246 8.195079300846874 49.43619684268914 H 0.0 **** 0.06
9136 C 95.27428118363842 18.100953044594718 65.55283404403436 C 0.0 **** -0.24
9137 H 95.87750903920622 18.55727895129246 66.33790648209973 H 0.0 **** 0.06
9138 H 95.6928161300598 18.356036447556505 64.57871706028263 H 0.0 **** 0.06
9139 H 94.25190961870038 18.472981276385156 65.61861602375654 H 0.0 **** 0.06
9140 H 95.27605481679203 17.01792230683273 65.67767070113108 H 0.0 **** 0.06
9141 C 131.26125945384013 45.741673574295106 14.170064488954324 C 0.0 **** -0.24
9142 H 131.15538257952915 46.58452747265619 13.486947883349956 H 0.0 **** 0.06
9143 H 130.59698867499628 45.878710519108324 15.022688120156147 H 0.0 **** 0.06
9144 H 132.29347031742873 45.68392024893029 14.518097910343556 H 0.0 **** 0.06
9145 H 131.0014990096726 44.81900845577945 13.650968646688511 H 0.0 **** 0.06
9146 C 139.0691943782763 138.32873832591716 10.222560888061082 C 0.0 **** -0.24
9147 H 138.967724970082 137.99977830082517 9.188782324495662 H 0.0 **** 0.06
9148 H 140.00136969456722 138.88122513051704 10.338945556053574 H 0.0 **** 0.06
9149 H 139.07622000907 137.46065576458997 10.880849695343528 H 0.0 **** 0.06
9150 H 138.22980432894738 138.97378100928336 10.481777336371266 H 0.0 **** 0.06
9151 C 45.461376842441496 13.97182150086595 81.72537894310841 C 0.0 **** -0.24
9152 H 44.68969776532805 14.061315369515285 82.49064242097319 H 0.0 **** 0.06
9153 H 46.294086680740605 14.630924614240918 81.97048769195925 H 0.0 **** 0.06
9154 H 45.04743554984415 14.253290775710667 80.75765093125523 H 0.0 **** 0.06
9155 H 45.81383860429443 12.940310119552286 81.68466098973238 H 0.0 **** 0.06
9156 C 68.58501333056 5.247377025599263 25.403495160643672 C 0.0 **** -0.24
9157 H 68.69784595328893 4.307219882216259 24.863288481122765 H 0.0 **** 0.06
9158 H 69.41191068013825 5.9121720054469336 25.153558552999414 H 0.0 **** 0.06
9159 H 68.58564277413127 5.052685831118481 26.475767430291853 H 0.0 **** 0.06
9160 H 67.64245024370936 5.716953321256284 25.12040883399925 H 0.0 **** 0.06
9161 C 102.51738417564071 101.39103964138778 90.11648747547588 C 0.0 **** -0.24
9162 H 103.44210121341528 101.95411891646606 90.24054795412192 H 0.0 **** 0.06
9163 H 102.44010973223196 101.0426059400144 89.08626830465079 H 0.0 **** 0.06
9164 H 101.66760086758815 102.03273042951591 90.3490517742834 H 0.0 **** 0.06
9165 H 102.52064531078557 100.53490659569971 90.79041583077165 H 0.0 **** 0.06
9166 C 52.13799993177456 59.0403923447642 12.15618113473326 C 0.0 **** -0.24
9167 H 51.638189687411725 58.5612885811245 11.314384131848811 H 0.0 **** 0.06
9168 H 51.97952927691868 60.11792553694809 12.106965385046635 H 0.0 **** 0.06
9169 H 53.20586939247269 58.82701198713241 12.113937614217917 H 0.0 **** 0.06
9170 H 51.727061549919554 58.65431169560131 13.089099824774479 H 0.0 **** 0.06
9171 C 120.8755177724185 95.49779743671081 104.06822181240916 C 0.0 **** -0.24
9172 H 120.55590448689361 94.49557320558775 103.78090164109952 H 0.0 **** 0.06
9173 H 121.80937902880248 95.73924902135556 103.55976510982043 H 0.0 **** 0.06
9174 H 121.02726228524818 95.53527890848358 105.1462243956353 H 0.0 **** 0.06
9175 H 120.10927078051151 96.21801175784883 103.78291892456065 H 0.0 **** 0.06
9176 C 93.74171267604765 4.1871088897728015 80.10116379353296 C 0.0 **** -0.24
9177 H 94.75821724255033 4.0478524204381365 79.73283376642273 H 0.0 **** 0.06
9178 H 93.75202919459994 4.888257015332638 80.93674493913926 H 0.0 **** 0.06
9179 H 93.34330204591484 3.229380248430033 80.43543718284693 H 0.0 **** 0.06
9180 H 93.11585553813799 4.582968114438241 79.30198035424388 H 0.0 **** 0.06
9181 C 129.56500878157988 132.55711456984912 39.56625448073066 C 0.0 **** -0.24
9182 H 128.98396287108676 133.01356984336812 40.368186629649955 H 0.0 **** 0.06
9183 H 130.61366890905666 132.50991677882658 39.85945269408231 H 0.0 **** 0.06
9184 H 129.46653556449112 133.15551278637676 38.660009735591416 H 0.0 **** 0.06
9185 H 129.1948971071486 131.54947071310946 39.37760906015794 H 0.0 **** 0.06
9186 C 96.9529602400792 59.072936788013294 139.54727982373973 C 0.0 **** -0.24
9187 H 96.09376392368523 59.32685421092373 140.16839538868896 H 0.0 **** 0.06
9188 H 97.85231611187604 59.5179242520943 139.97197033507751 H 0.0 **** 0.06
9189 H 96.79822467807438 59.45705176014809 138.53853033431486 H 0.0 **** 0.06
9190 H 97.06571165035038 57.98921627279907 139.50913689085243 H 0.0 **** 0.06
9191 C 144.56190791953702 45.65098493305828 62.68920400329958 C 0.0 **** -0.24
9192 H 145.3895476683451 45.668111574194086 61.98104303098708 H 0.0 **** 0.06
9193 H 143.84255424732686 44.887617001818484 62.38861508243869 H 0.0 **** 0.06
9194 H 144.0737049138456 46.62518144967109 62.7007730952767 H 0.0 **** 0.06
9195 H 144.94035366657224 45.42226819617929 63.68488282456346 H 0.0 **** 0.06
9196 C 103.208726077992 108.7965906588913 10.487787141984256 C 0.0 **** -0.24
9197 H 104.24751632233622 108.62240976696815 10.208889844585656 H 0.0 **** 0.06
9198 H 103.01910672305857 108.3618224049351 11.469965348696888 H 0.0 **** 0.06
9199 H 102.55176957818992 108.33286409782191 9.751866130446416 H 0.0 **** 0.06
9200 H 103.01660869425146 109.86892181077938 10.522394995818274 H 0.0 **** 0.06
9201 C 60.806686446390245 56.427612922700376 100.3409220491427 C 0.0 **** -0.24
9202 H 60.20532024706539 55.89101329567468 101.07468592539749 H 0.0 **** 0.06
9203 H 60.284582585828076 56.44306474663266 99.38435073149006 H 0.0 **** 0.06
9204 H 61.76718719998095 55.925320689808245 100.2226818539103 H 0.0 **** 0.06
9205 H 60.97031228658339 57.44933661234903 100.68324378816416 H 0.0 **** 0.06
9206 C 8.866925293961572 44.64185894970501 62.34048470884056 C 0.0 **** -0.24
9207 H 8.741785197420654 45.605711058672625 62.83358404191188 H 0.0 **** 0.06
9208 H 9.176854156076388 44.79963300646921 61.306634904587156 H 0.0 **** 0.06
9209 H 7.921187026683469 44.0993073559485 62.35797291734616 H 0.0 **** 0.06
9210 H 9.627136571849746 44.06152867557137 62.862809758236665 H 0.0 **** 0.06
9211 C 54.94925375989092 117.54514800419888 67.7416924391875 C 0.0 **** -0.24
9212 H 55.28174646916081 118.58335423700281 67.72736289372081 H 0.0 **** 0.06
9213 H 54.466894166640955 117.30541020350653 66.79441588038087 H 0.0 **** 0.06
9214 H 54.240250549667806 117.40223073970618 68.55723091449016 H 0.0 **** 0.06
9215 H 55.8088414278774 116.89053367664731 67.88853949481818 H 0.0 **** 0.06
9216 C 55.26074592285465 122.27833004072056 84.98949971674536 C 0.0 **** -0.24
9217 H 55.05981799331278 122.68842648421258 83.9997246033422 H 0.0 **** 0.06
9218 H 54.33040201793938 122.2236939036319 85.55514361880715 H 0.0 **** 0.06
9219 H 55.9680303922147 122.92269911061263 85.512463496361 H 0.0 **** 0.06
9220 H 55.68504994656837 121.27971151177707 84.88946977340191 H 0.0 **** 0.06
9221 C 38.9877982578908 22.622832924955098 91.70183040268894 C 0.0 **** -0.24
9222 H 39.084152246134636 21.799799861309864 90.9939932999713 H 0.0 **** 0.06
9223 H 39.88429004469904 23.24185595239655 91.6632444459784 H 0.0 **** 0.06
9224 H 38.86341606674662 22.224470479278075 92.70774552746414 H 0.0 **** 0.06
9225 H 38.11833722240766 23.226981469666356 91.43936323078196 H 0.0 **** 0.06
9226 C 22.182645313844773 82.82838103357071 68.73555920890739 C 0.0 **** -0.24
9227 H 23.0745040373493 83.43955148101924 68.87318038541949 H 0.0 **** 0.06
9228 H 22.080777908937364 82.14003496063569 69.57496354678949 H 0.0 **** 0.06
9229 H 22.268473146708402 82.26252778401803 67.80861718178512 H 0.0 **** 0.06
9230 H 21.3048677634265 83.47401619403934 68.68731217510138 H 0.0 **** 0.06
9231 C 115.00186181891031 116.29565579279773 48.66402090119591 C 0.0 **** -0.24
9232 H 114.57555114876583 116.26677102095323 49.66694950966618 H 0.0 **** 0.06
9233 H 115.52111588952955 115.3580957930572 48.46293784355852 H 0.0 **** 0.06
9234 H 115.70634561832493 117.12443843912479 48.59281132084405 H 0.0 **** 0.06
9235 H 114.2039639067621 116.4322642898793 47.934202478878376 H 0.0 **** 0.06
9236 C 62.51184101404539 82.00845751468569 31.245183933511328 C 0.0 **** -0.24
9237 H 62.842906092604096 81.61209334326708 32.205398639093715 H 0.0 **** 0.06
9238 H 63.37828361172913 82.18732391045177 30.60834726572901 H 0.0 **** 0.06
9239 H 61.976788595995856 82.94497543050704 31.403547483108298 H 0.0 **** 0.06
9240 H 61.84913509858956 81.28903625897462 30.764323436881625 H 0.0 **** 0.06
9241 C 86.49943465084715 78.08843361364956 57.55249844545534 C 0.0 **** -0.24
9242 H 86.62703452032792 79.1382199416027 57.815910325645035 H 0.0 **** 0.06
9243 H 85.43782777710231 77.86905021083174 57.437508550666365 H 0.0 **** 0.06
9244 H 86.91632745145424 77.4628055749194 58.34311968348544 H 0.0 **** 0.06
9245 H 87.01738803128947 77.88336135929109 56.615737242338724 H 0.0 **** 0.06
9246 C 1.0430784949044103 130.97668884892676 48.97846401058473 C 0.0 **** -0.24
9247 H 0.10092522478977628 130.49691721157413 49.24228830620552 H 0.0 **** 0.06
9248 H 1.6009830401072875 131.20578869649736 49.88634818279293 H 0.0 **** 0.06
9249 H 0.8409428561766781 131.8989720939482 48.43329548535678 H 0.0 **** 0.06
9250 H 1.629835773963876 130.30526249632368 48.35101482940904 H 0.0 **** 0.06
9251 C 109.04680087442942 38.440358596596866 139.1843149373698 C 0.0 **** -0.24
9252 H 108.21981239739536 38.16843959656467 138.52948980874635 H 0.0 **** 0.06
9253 H 109.69158689320373 39.15875707466958 138.67854869379823 H 0.0 **** 0.06
9254 H 109.62128064008455 37.54772113913154 139.4327586623589 H 0.0 **** 0.06
9255 H 108.65462742500755 38.88536373976251 140.09862139076736 H 0.0 **** 0.06
9256 C 88.81678388059916 97.61440815652888 26.563087409213757 C 0.0 **** -0.24
9257 H 87.75323908516066 97.85263307267948 26.580501694130376 H 0.0 **** 0.06
9258 H 88.98266215917752 96.65978297804041 27.062058398723693 H 0.0 **** 0.06
9259 H 89.37189564021259 98.39692363946487 27.080954548878914 H 0.0 **** 0.06
9260 H 89.15819991916831 97.54945617498447 25.530665420419673 H 0.0 **** 0.06
9261 C 35.59735145738723 82.20147052221465 5.9042764631605 C 0.0 **** -0.24
9262 H 36.14188900959518 83.14531440079952 5.92589755507575 H 0.0 **** 0.06
9263 H 36.23921652484143 81.42079800122077 5.4960197460387405 H 0.0 **** 0.06
9264 H 34.71008756866458 82.30761928267526 5.280086484448844 H 0.0 **** 0.06
9265 H 35.29831013793948 81.93332599148243 6.918036166987889 H 0.0 **** 0.06
9266 C 122.9804329512703 32.30231751691062 96.8905968996866 C 0.0 **** -0.24
9267 H 123.6693012193264 32.97889589297742 96.38482214064665 H 0.0 **** 0.06
9268 H 122.52634423858213 32.814486351631245 97.73961779263811 H 0.0 **** 0.06
9269 H 123.52611964601388 31.426036535559064 97.2442262008133 H 0.0 **** 0.06
9270 H 122.20269302850211 31.989457437456792 96.19527467364924 H 0.0 **** 0.06
9271 C 48.620359292356994 64.43641527792641 81.92019878991005 C 0.0 **** -0.24
9272 H 48.39171980827027 65.35635443349585 81.38222218486825 H 0.0 **** 0.06
9273 H 49.64868637536787 64.47353143688761 82.28124552507936 H 0.0 **** 0.06
9274 H 48.499529018734194 63.58494884763313 81.25113539840413 H 0.0 **** 0.06
9275 H 47.940983562021245 64.33273816833412 82.76591537701282 H 0.0 **** 0.06
9276 C 144.4420752108412 7.406671165010209 84.52375146117716 C 0.0 **** -0.24
9277 H 144.02240832373636 8.166688287251986 83.86454695369243 H 0.0 **** 0.06
9278 H 145.46685774043414 7.189451375421413 84.2214647522929 H 0.0 **** 0.06
9279 H 143.8432930784415 6.498683478430507 84.45947726619922 H 0.0 **** 0.06
9280 H 144.43665000615138 7.77323248568149 85.55103201274824 H 0.0 **** 0.06
9281 C 86.96021376917184 34.94039553901732 3.9595120908136323 C 0.0 **** -0.24
9282 H 86.15500542486905 34.89868949081384 3.225242334901452 H 0.0 **** 0.06
9283 H 87.86793209254228 34.51896450343739 3.52791481056056 H 0.0 **** 0.06
9284 H 86.67581348231005 34.36693529100981 4.842091686514095 H 0.0 **** 0.06
9285 H 87.13930625076011 35.97735478450062 4.243003336225911 H 0.0 **** 0.06
9286 C 70.7276076840233 142.6319438770142 18.980870367789777 C 0.0 **** -0.24
9287 H 70.40176044135004 143.148663351104 19.88269650650949 H 0.0 **** 0.06
9288 H 69.88887344297815 142.5454740125124 18.289126346317687 H 0.0 **** 0.06
9289 H 71.08755733385306 141.63711036309743 19.242471988030957 H 0.0 **** 0.06
9290 H 71.53162955018688 143.196867258533 18.507956678279072 H 0.0 **** 0.06
9291 C 117.36490506962821 8.603204677721966 6.11123124054561 C 0.0 **** -0.24
9292 H 118.10776550838602 8.843337960275612 5.350247473712777 H 0.0 **** 0.06
9293 H 117.53895570330616 7.592524777207856 6.481534422445726 H 0.0 **** 0.06
9294 H 116.36672584837771 8.664168963983876 5.675425575604429 H 0.0 **** 0.06
9295 H 117.44568480966149 9.312219992326781 6.934190378804747 H 0.0 **** 0.06
9296 C 134.22121736460147 132.76878061162947 70.30226517386421 C 0.0 **** -0.24
9297 H 133.24757565463187 132.92070706573415 70.76897933009485 H 0.0 **** 0.06
9298 H 134.9348646630251 133.48435828642883 70.71054573713582 H 0.0 **** 0.06
9299 H 134.1343555964707 132.9146875624752 69.2260997396894 H 0.0 **** 0.06
9300 H 134.5665213182103 131.75551080842797 70.50503927669362 H 0.0 **** 0.06
9301 C 69.64188510178391 79.10013278428586 83.77326200410381 C 0.0 **** -0.24
9302 H 69.32344602364691 80.12689153210438 83.95183943431259 H 0.0 **** 0.06
9303 H 70.44500942975989 79.09182826851266 83.03696301154372 H 0.0 **** 0.06
9304 H 68.79877573746717 78.51871653524618 83.39849448262447 H 0.0 **** 0.06
9305 H 69.99895877958068 78.66335045172987 84.70608433106248 H 0.0 **** 0.06
9306 C 7.080337561359968 111.30028891960286 21.88072162764658 C 0.0 **** -0.24
9307 H 7.644633880609305 110.6230538207259 22.521452585238734 H 0.0 **** 0.06
9308 H 6.713526674712259 110.7547790614477 21.01052698282055 H 0.0 **** 0.06
9309 H 7.727259191307972 112.11381317588864 21.553007470005042 H 0.0 **** 0.06
9310 H 6.236097415254928 111.70769735745914 22.436259928619194 H 0.0 **** 0.06
9311 C 31.801023147910485 70.48913364517227 111.9481346748444 C 0.0 **** -0.24
9312 H 31.071068718396873 70.49524216253798 112.75696968201694 H 0.0 **** 0.06
9313 H 31.303317388468088 70.23033494841604 111.01252247236923 H 0.0 **** 0.06
9314 H 32.576413867703366 69.75403920390512 112.1631771798254 H 0.0 **** 0.06
9315 H 32.251535887157274 71.47749586663637 111.85861218748582 H 0.0 **** 0.06
9316 C 112.48005918251107 143.17649524719093 27.982164873788733 C 0.0 **** -0.24
9317 H 113.04584298237415 142.8792688505065 28.865118471426953 H 0.0 **** 0.06
9318 H 112.99346064836755 142.82385375771875 27.086954917882743 H 0.0 **** 0.06
9319 H 112.39986041597246 144.26389432399026 27.95177777377078 H 0.0 **** 0.06
9320 H 111.48298589717263 142.7391975409035 28.02594204996646 H 0.0 **** 0.06
9321 C 67.31266576878016 19.446560372362264 25.169789032529522 C 0.0 **** -0.24
9322 H 67.68265049320962 18.634330987710058 25.794246043934066 H 0.0 **** 0.06
9323 H 68.0726511851521 20.224695849982957 25.09929620202962 H 0.0 **** 0.06
9324 H 66.40703069041521 19.86205545592707 25.61171078685514 H 0.0 **** 0.06
9325 H 67.08924279728171 19.065337617975885 24.173533909894587 H 0.0 **** 0.06
9326 C 16.306480303847906 85.51103103005426 31.33711015868259 C 0.0 **** -0.24
9327 H 16.073574839544982 86.57192880258913 31.43031354876134 H 0.0 **** 0.06
9328 H 15.591107095108889 84.92994770277392 31.920076097846433 H 0.0 **** 0.06
9329 H 17.313905761512274 85.32627252487407 31.710352907222976 H 0.0 **** 0.06
9330 H 16.247702044391275 85.2161569940987 30.289896106946742 H 0.0 **** 0.06
9331 C 143.04428404276965 113.09724200423652 3.7516118947921484 C 0.0 **** -0.24
9332 H 142.2940189224931 113.54888105806425 3.103384877573177 H 0.0 **** 0.06
9333 H 142.5476893594605 112.5506224758809 4.554505282894041 H 0.0 **** 0.06
9334 H 143.67397567782965 113.87752429014246 4.1781501226682565 H 0.0 **** 0.06
9335 H 143.65952023718114 112.409763198748 3.1711343213448515 H 0.0 **** 0.06
9336 C 42.556286661804165 76.8993611208223 116.33511040431867 C 0.0 **** -0.24
9337 H 43.10229340593884 76.32685778909106 115.58637988129223 H 0.0 **** 0.06
9338 H 41.56626211028998 76.46466389169424 116.47348167865638 H 0.0 **** 0.06
9339 H 42.45671416615397 77.93226054109132 116.00226662810641 H 0.0 **** 0.06
9340 H 43.09891137312616 76.87292422148309 117.2804402088997 H 0.0 **** 0.06
9341 C 145.565854330521 52.6327169516603 24.272807894433214 C 0.0 **** -0.24
9342 H 145.76845167566418 52.218707590944746 25.260534809773134 H 0.0 **** 0.06
9343 H 144.6643619954149 52.17463930690215 23.86441789686475 H 0.0 **** 0.06
9344 H 146.40909294847103 52.425634515208 23.612654529271964 H 0.0 **** 0.06
9345 H 145.42305537834827 53.71002202774777 24.35185275784619 H 0.0 **** 0.06
9346 C 36.25247892856923 112.88509096616883 72.31661188975468 C 0.0 **** -0.24
9347 H 35.72327377418354 113.50647657872594 71.5937925864387 H 0.0 **** 0.06
9348 H 36.46141273445788 113.47051246846422 73.21279283543669 H 0.0 **** 0.06
9349 H 37.18872901910002 112.53925556514247 71.88098539238433 H 0.0 **** 0.06
9350 H 35.63380401864673 112.02667478786555 72.57932454879585 H 0.0 **** 0.06
9351 C 105.59996728148258 43.35294617965752 50.812275872326566 C 0.0 **** -0.24
9352 H 105.40676857593934 42.6863489015023 51.65320348956976 H 0.0 **** 0.06
9353 H 105.5875934008825 44.38710030349108 51.15840603545141 H 0.0 **** 0.06
9354 H 104.82861373562434 43.21397905628356 50.054464046695955 H 0.0 **** 0.06
9355 H 106.57587070782847 43.12403630831449 50.383952774619914 H 0.0 **** 0.06
9356 C 141.6188442372976 79.80253505541053 0.7128830937976147 C 0.0 **** -0.24
9357 H 140.69478321981302 80.3652102992794 0.8476596739206812 H 0.0 **** 0.06
9358 H 142.44179992187543 80.33620397913384 1.1913467219404161 H 0.0 **** 0.06
9359 H 141.8261387552834 79.69299093050311 -0.351150233596524 H 0.0 **** 0.06
9360 H 141.51307548259342 78.81642855100947 1.1665645751067117 H 0.0 **** 0.06
9361 C 109.23988568226119 131.4705325099435 109.23612274155403 C 0.0 **** -0.24
9362 H 109.9306259896459 131.18029581927632 108.44449885086124 H 0.0 **** 0.06
9363 H 109.7505725399707 131.42438756786257 110.19818848333875 H 0.0 **** 0.06
9364 H 108.38800705272351 130.78924421520637 109.24326662160632 H 0.0 **** 0.06
9365 H 108.89007395224107 132.4872596769617 109.05833213225509 H 0.0 **** 0.06
9366 C 113.6184379615733 99.58627910072181 68.04754648577452 C 0.0 **** -0.24
9367 H 113.61513136255866 100.36114875344964 68.81351446298365 H 0.0 **** 0.06
9368 H 113.38674658148545 98.62270013576114 68.5033366327272 H 0.0 **** 0.06
9369 H 114.60338462633553 99.5405907004918 67.58184961352129 H 0.0 **** 0.06
9370 H 112.86880233436267 99.81951871636966 67.2907363056063 H 0.0 **** 0.06
9371 C 10.844727495082026 71.27903374377857 77.167536012572 C 0.0 **** -0.24
9372 H 10.490620898289478 70.351961546009 76.7171422543251 H 0.0 **** 0.06
9373 H 11.343276574741822 71.88415470324782 76.40987225768424 H 0.0 **** 0.06
9374 H 11.547758294726464 71.04794323089985 77.96861954272043 H 0.0 **** 0.06
9375 H 9.997732814917725 71.83122790763204 77.57473929710876 H 0.0 **** 0.06
9376 C 84.32745204614471 42.58393637921638 132.81084916522877 C 0.0 **** -0.24
9377 H 83.25897021120566 42.47836390976235 132.99859877557844 H 0.0 **** 0.06
9378 H 84.64281477957508 41.83862037889541 132.08055859980615 H 0.0 **** 0.06
9379 H 84.87567411699908 42.43704304260427 133.74042311250176 H 0.0 **** 0.06
9380 H 84.53059577319387 43.5814638172142 132.42245182644538 H 0.0 **** 0.06
9381 C 129.94637693936204 75.23253014953134 41.74469413642309 C 0.0 **** -0.24
9382 H 129.99759074815216 74.14752013665918 41.836232765328816 H 0.0 **** 0.06
9383 H 129.03134062057595 75.59416255454006 42.21462654696168 H 0.0 **** 0.06
9384 H 129.94775427352488 75.50879644364957 40.69037258865159 H 0.0 **** 0.06
9385 H 130.80877916148918 75.67967023339162 42.23854332935592 H 0.0 **** 0.06
9386 C 16.44939324859567 68.12108970610595 2.698211847299433 C 0.0 **** -0.24
9387 H 15.736066032116753 67.46468386171784 2.1984843173548256 H 0.0 **** 0.06
9388 H 17.104345175259397 67.52655690107997 3.3368500151906915 H 0.0 **** 0.06
9389 H 15.910169920113589 68.8482123007926 3.305751847084423 H 0.0 **** 0.06
9390 H 17.04684242053517 68.64368150163443 1.9510691528042798 H 0.0 **** 0.06
9391 C 89.24122804062429 80.94994968416978 82.93293478587319 C 0.0 **** -0.24
9392 H 90.21628487051578 81.224729101067 83.33622795608395 H 0.0 **** 0.06
9393 H 89.34965358694424 80.65792301751193 81.88790977783157 H 0.0 **** 0.06
9394 H 88.56495496633275 81.80239707250738 83.00374520792373 H 0.0 **** 0.06
9395 H 88.83494761615674 80.11507526024158 83.50367973542934 H 0.0 **** 0.06
9396 C 126.737078802068 88.86556808600966 105.09599173749365 C 0.0 **** -0.24
9397 H 126.5526182932766 87.83156165868 105.38752377520154 H 0.0 **** 0.06
9398 H 125.8442589355264 89.27299520502967 104.6207815082293 H 0.0 **** 0.06
9399 H 127.57069262591985 88.90202586080828 104.39394917214872 H 0.0 **** 0.06
9400 H 126.98042527541963 89.45430683336957 105.98030337155461 H 0.0 **** 0.06
9401 C 94.20601243134743 144.71004675897183 101.98124386949257 C 0.0 **** -0.24
9402 H 94.66809997689208 144.28005829995405 102.86986241523964 H 0.0 **** 0.06
9403 H 93.4987604789475 143.99660811744556 101.55827120231203 H 0.0 **** 0.06
9404 H 94.977905683952 144.93623351233973 101.24542781311459 H 0.0 **** 0.06
9405 H 93.68147264314453 145.62693898105516 102.25111899749676 H 0.0 **** 0.06
9406 C 21.910649437643457 73.55718193359273 142.2918021932425 C 0.0 **** -0.24
9407 H 21.231312329208023 73.93046592470084 143.05749730814523 H 0.0 **** 0.06
9408 H 21.848213030633516 72.468812433471 142.2499033338301 H 0.0 **** 0.06
9409 H 22.93115315377446 73.8532313078289 142.53619094140237 H 0.0 **** 0.06
9410 H 21.632804116533322 73.9752424181886 141.32413214806041 H 0.0 **** 0.06
9411 C 99.07869737211522 22.869697715105815 36.40160415437677 C 0.0 **** -0.24
9412 H 99.21768022367868 23.056754414890804 35.33761807415067 H 0.0 **** 0.06
9413 H 99.76913434874584 23.49098405426352 36.97265668524852 H 0.0 **** 0.06
9414 H 99.2755530053748 21.818650688413925 36.61432446358424 H 0.0 **** 0.06
9415 H 98.0539615968562 23.11230835249873 36.683090511509874 H 0.0 **** 0.06
9416 C 99.65585174104467 49.47952300935441 80.53065764908408 C 0.0 **** -0.24
9417 H 98.71908231705129 49.37119169939402 81.07850829225629 H 0.0 **** 0.06
9418 H 100.32599802396524 48.660458521366934 80.79388810075565 H 0.0 **** 0.06
9419 H 100.12159545348743 50.42842929626164 80.79335419047852 H 0.0 **** 0.06
9420 H 99.45499787520576 49.45638644317461 79.45977002577087 H 0.0 **** 0.06
9421 C 141.80051979844058 48.64290628599035 91.09336807770809 C 0.0 **** -0.24
9422 H 142.24725713701002 49.18405712322948 91.92728618313238 H 0.0 **** 0.06
9423 H 141.05593066736765 47.94184441531712 91.47329474088154 H 0.0 **** 0.06
9424 H 142.57589368884572 48.09523444699188 90.55834587957321 H 0.0 **** 0.06
9425 H 141.32134590046596 49.350458281712605 90.41605243178152 H 0.0 **** 0.06
9426 C 7.4050308269671845 42.79067856002692 0.4852197020657911 C 0.0 **** -0.24
9427 H 8.27256612377618 42.894150685767315 -0.16702791405759854 H 0.0 **** 0.06
9428 H 6.6116485282358575 42.26663109595383 -0.04768711765780154 H 0.0 **** 0.06
9429 H 7.053426326018961 43.77972021164483 0.7795100302647313 H 0.0 **** 0.06
9430 H 7.683629262076128 42.223981654878415 1.3725405790015373 H 0.0 **** 0.06
9431 C 9.860279934592164 94.02840006398044 131.04918831289802 C 0.0 **** -0.24
9432 H 9.882513142876064 95.09497362207689 130.82791160942247 H 0.0 **** 0.06
9433 H 10.829424678630318 93.71673912047932 131.4390496078925 H 0.0 **** 0.06
9434 H 9.639395388866959 93.47254387346712 130.13731559113194 H 0.0 **** 0.06
9435 H 9.08801931604134 93.82765351954903 131.7923325084189 H 0.0 **** 0.06
9436 C 0.8723706595417866 62.16511591439729 108.36473041712773 C 0.0 **** -0.24
9437 H 1.7822099061276049 62.618204221003396 107.96945774903642 H 0.0 **** 0.06
9438 H 0.3908956286181251 62.86002270628137 109.05347658556266 H 0.0 **** 0.06
9439 H 1.125968735267918 61.24631618699499 108.89359143625697 H 0.0 **** 0.06
9440 H 0.19379666154219422 61.937382140419516 107.5430154243675 H 0.0 **** 0.06
9441 C 25.45752774109934 34.921023771273084 45.07458508573876 C 0.0 **** -0.24
9442 H 25.77057771335768 34.41751845705628 44.15944190061798 H 0.0 **** 0.06
9443 H 24.49720039576283 35.410821881180034 44.908265599207084 H 0.0 **** 0.06
9444 H 26.20226558277284 35.665398687356316 45.352247341771815 H 0.0 **** 0.06
9445 H 25.358186744759337 34.18950051703359 45.87599132105794 H 0.0 **** 0.06
9446 C 63.75109816605635 122.80786518651843 20.128671111692555 C 0.0 **** -0.24
9447 H 63.664000057989824 123.67203445335542 20.786917475185994 H 0.0 **** 0.06
9448 H 64.18697110767971 123.11936886273782 19.17834999572554 H 0.0 **** 0.06
9449 H 62.762561150967315 122.38368412789515 19.954008936012137 H 0.0 **** 0.06
9450 H 64.3922782390286 122.05944535705095 20.59416199409342 H 0.0 **** 0.06
9451 C 93.01834937188583 103.65849613651595 125.9117149317467 C 0.0 **** -0.24
9452 H 92.78437335678795 103.10961063461008 125.0001181021729 H 0.0 **** 0.06
9453 H 92.0982550335048 103.85764293579821 126.46100979876053 H 0.0 **** 0.06
9454 H 93.50075020783622 104.6017670949945 125.6540673787332 H 0.0 **** 0.06
9455 H 93.690278240199 103.06372631784141 126.53103099424197 H 0.0 **** 0.06
9456 C 71.85142764104717 1.1153054460419511 83.75209697747738 C 0.0 **** -0.24
9457 H 71.42278845385908 0.755535733856135 84.68750656701906 H 0.0 **** 0.06
9458 H 71.41090767769725 0.5693621118643826 82.91707422942301 H 0.0 **** 0.06
9459 H 72.92968013483718 0.9571066286868515 83.7622741698055 H 0.0 **** 0.06
9460 H 71.64119834444745 2.1795528075007518 83.64230569111237 H 0.0 **** 0.06
9461 C 129.08984130075967 89.32551155020285 91.87813986721672 C 0.0 **** -0.24
9462 H 129.08009697173674 89.98840745860511 92.74359638158093 H 0.0 **** 0.06
9463 H 128.1387879056412 88.79652389856591 91.81572668055288 H 0.0 **** 0.06
9464 H 129.90139134017286 88.60472529457587 91.98300477604809 H 0.0 **** 0.06
9465 H 129.24033670927884 89.91311922971649 90.97220925895624 H 0.0 **** 0.06
9466 C 119.26507347840808 109.40214859011219 20.718926377338533 C 0.0 **** -0.24
9467 H 118.97851378773962 108.90816359179713 21.647215260644657 H 0.0 **** 0.06
9468 H 120.11331415484054 108.87997541319619 20.27715291580276 H 0.0 **** 0.06
9469 H 119.54275306168685 110.4350555406963 20.92841186007618 H 0.0 **** 0.06
9470 H 118.42437769811059 109.38542502632446 20.024719015049925 H 0.0 **** 0.06
9471 C 50.65407768155325 58.630552143651116 66.87972092425352 C 0.0 **** -0.24
9472 H 51.454820851515876 58.01490644196495 67.29149600233742 H 0.0 **** 0.06
9473 H 50.99291116110345 59.6634674478813 66.80260591331628 H 0.0 **** 0.06
9474 H 49.78528959744045 58.58115704039611 67.53650422695223 H 0.0 **** 0.06
9475 H 50.3840973156274 58.26035563611221 65.89109813995834 H 0.0 **** 0.06
9476 C 119.74753962464996 79.50289221840521 119.44864200100685 C 0.0 **** -0.24
9477 H 120.80871086015071 79.37089224531884 119.24015108199117 H 0.0 **** 0.06
9478 H 119.17870162829973 78.72473517133102 118.94033420712847 H 0.0 **** 0.06
9479 H 119.42588227256556 80.48066240223818 119.09149516006559 H 0.0 **** 0.06
9480 H 119.57693894797973 79.43465099180617 120.52385245314659 H 0.0 **** 0.06
9481 C 104.66101602956569 64.73205548551854 43.03307767364453 C 0.0 **** -0.24
9482 H 105.34773635900241 63.885850285448015 43.054822690209136 H 0.0 **** 0.06
9483 H 103.87877307150889 64.54509630945225 42.295992056466645 H 0.0 **** 0.06
9484 H 105.20690691493733 65.63564278822653 42.76320550217058 H 0.0 **** 0.06
9485 H 104.20988648064156 64.85898911126728 44.017093361052005 H 0.0 **** 0.06
9486 C 19.482445895406535 38.94235429635942 124.0015016031019 C 0.0 **** -0.24
9487 H 19.356627629323206 39.54730064260323 124.90048695329912 H 0.0 **** 0.06
9488 H 19.071898589780112 37.94663266830796 124.17439267951826 H 0.0 **** 0.06
9489 H 20.543360161017766 38.86199237787762 123.76519720638393 H 0.0 **** 0.06
9490 H 18.959063185312225 39.41320041348668 123.17046352439266 H 0.0 **** 0.06
9491 C 32.69768504624068 113.10375910726337 116.74181483666018 C 0.0 **** -0.24
9492 H 33.09891353881508 112.10624273886084 116.92331614701413 H 0.0 **** 0.06
9493 H 31.608054907688057 113.0610744771571 116.74358241655386 H 0.0 **** 0.06
9494 H 33.04659800645355 113.46525615703031 115.77500695321112 H 0.0 **** 0.06
9495 H 33.036839177477276 113.77943949442577 117.52728947355513 H 0.0 **** 0.06
9496 C 137.48030881692935 137.5444205547683 128.63762661421427 C 0.0 **** -0.24
9497 H 138.32199242680653 137.51398666081724 129.32861599151383 H 0.0 **** 0.06
9498 H 136.5891834430153 137.88417415706027 129.16531397359546 H 0.0 **** 0.06
9499 H 137.30564816153813 136.54711820907434 128.2335392519141 H 0.0 **** 0.06
9500 H 137.70492650365125 138.23182219959776 127.82240716762695 H 0.0 **** 0.06
9501 C 60.43898193493712 91.48988234712772 108.49725447131307 C 0.0 **** -0.24
9502 H 61.406038572654 91.4437484879715 108.99871040429811 H 0.0 **** 0.06
9503 H 60.481625980872096 92.22520944152683 107.69324359863488 H 0.0 **** 0.06
9504 H 59.67096523093838 91.77914745586736 109.21419931635866 H 0.0 **** 0.06
9505 H 60.19915021715907 90.51134365559096 108.08161441051946 H 0.0 **** 0.06
9506 C 43.25086295110732 113.13894837755068 28.701290488992754 C 0.0 **** -0.24
9507 H 43.368315361432295 114.12759556257781 29.145654749944583 H 0.0 **** 0.06
9508 H 42.90579399992198 113.24243282464393 27.671935186275903 H 0.0 **** 0.06
9509 H 42.521271638150466 112.56745140014728 29.274011682712228 H 0.0 **** 0.06
9510 H 44.209522669978796 112.62001642829482 28.712563770899294 H 0.0 **** 0.06
9511 C 23.921138851901162 40.2269844508063 120.3720468442739 C 0.0 **** -0.24
9512 H 23.592767577199545 40.701550750716656 119.44740311548271 H 0.0 **** 0.06
9513 H 23.06236413467066 39.7865237842285 120.87894850910023 H 0.0 **** 0.06
9514 H 24.382734429745206 40.972363156742624 121.01879018808533 H 0.0 **** 0.06
9515 H 24.646330678837828 39.44652382814162 120.14133721413718 H 0.0 **** 0.06
9516 C 61.75764358420602 117.46303573590949 136.53553292549608 C 0.0 **** -0.24
9517 H 61.00782518266047 117.194933150197 137.28114230667146 H 0.0 **** 0.06
9518 H 61.2615558701668 117.86106648001261 135.649798515615 H 0.0 **** 0.06
9519 H 62.33322104447842 116.57869232713942 136.2644828138236 H 0.0 **** 0.06
9520 H 62.42586265307776 118.21951845130339 136.94900498664182 H 0.0 **** 0.06
9521 C 7.615346511739858 118.83053135614108 76.07601865473293 C 0.0 **** -0.24
9522 H 7.0278122710036826 119.73191958395256 75.89914662889068 H 0.0 **** 0.06
9523 H 7.070249103959412 117.96389455780536 75.7013716317656 H 0.0 **** 0.06
9524 H 7.790231885418194 118.71654194860406 77.14521758806747 H 0.0 **** 0.06
9525 H 8.569879789969974 118.91202880651093 75.55708490407613 H 0.0 **** 0.06
9526 C 58.282028610420355 11.866114142890382 110.4041495909466 C 0.0 **** -0.24
9527 H 57.878077909248105 12.016120691065026 111.40604021490829 H 0.0 **** 0.06
9528 H 57.96543364583556 10.892952472150597 110.02783466726716 H 0.0 **** 0.06
9529 H 59.37075414332213 11.905859129213894 110.44230660471827 H 0.0 **** 0.06
9530 H 57.91145842191338 12.650093438326081 109.74323876157239 H 0.0 **** 0.06
9531 C 60.92077965002626 126.3944045950272 24.85635654017119 C 0.0 **** -0.24
9532 H 61.22451554634884 125.5099533476928 25.416523837766817 H 0.0 **** 0.06
9533 H 59.83421618537585 126.41450918174506 24.771265139878096 H 0.0 **** 0.06
9534 H 61.36456268603868 126.36405820719565 23.860966347968315 H 0.0 **** 0.06
9535 H 61.26146339007131 127.28926085875518 25.378483739063086 H 0.0 **** 0.06
9536 C 138.01306414849287 96.74671231463287 130.52442979295878 C 0.0 **** -0.24
9537 H 138.05570300453417 97.81515899213755 130.73245012631824 H 0.0 **** 0.06
9538 H 138.88251987930283 96.25589154062774 130.9636605634598 H 0.0 **** 0.06
9539 H 138.0103927126904 96.58535993177554 129.44643899125668 H 0.0 **** 0.06
9540 H 137.10360100803103 96.32871806860626 130.95762670429056 H 0.0 **** 0.06
9541 C 120.84231840195297 13.160528678213893 58.26792822219761 C 0.0 **** -0.24
9542 H 119.99820373692036 12.98636360917763 58.93662093255398 H 0.0 **** 0.06
9543 H 121.52657117730324 12.314244011400433 58.31869483920566 H 0.0 **** 0.06
9544 H 121.36352092846313 14.068400571013626 58.571227478818955 H 0.0 **** 0.06
9545 H 120.47833231122628 13.27404442524886 57.24622902620638 H 0.0 **** 0.06
9546 C 93.12167751721918 133.9403740333721 1.9331139042990024 C 0.0 **** -0.24
9547 H 93.57289701723087 133.39124825385775 1.1070172305239545 H 0.0 **** 0.06
9548 H 92.51779388007267 133.26082481983326 2.533922764411919 H 0.0 **** 0.06
9549 H 92.49068900971898 134.73670937239808 1.538479358660517 H 0.0 **** 0.06
9550 H 93.90741125367819 134.37395095867151 2.5526641363208924 H 0.0 **** 0.06
9551 C 84.89942394006869 46.33805968922218 117.8819007965214 C 0.0 **** -0.24
9552 H 83.86642998971897 46.63593495076826 118.06427339756881 H 0.0 **** 0.06
9553 H 85.2678448700888 45.76553860411026 118.73324122799396 H 0.0 **** 0.06
9554 H 85.5158909570273 47.226070369632666 117.74680346117275 H 0.0 **** 0.06
9555 H 84.94607829025189 45.72300918675354 116.98305811859778 H 0.0 **** 0.06
9556 C 84.99892393504385 13.860931215411739 49.740346517965975 C 0.0 **** -0.24
9557 H 84.28086994200085 14.402279717526 49.12463380582972 H 0.0 **** 0.06
9558 H 84.46629353296714 13.176278397904753 50.40209977212419 H 0.0 **** 0.06
9559 H 85.57271969122571 14.570371769625154 50.33627135209662 H 0.0 **** 0.06
9560 H 85.67343727230349 13.294498870375037 49.0989012621248 H 0.0 **** 0.06
9561 C 141.85056492994204 91.2505031028061 132.31997908002086 C 0.0 **** -0.24
9562 H 142.74713829325026 90.74372351704261 132.67868314475137 H 0.0 **** 0.06
9563 H 141.76631599771156 91.11948444945821 131.24097113535922 H 0.0 **** 0.06
9564 H 141.91670348862803 92.31370419156102 132.553874553332 H 0.0 **** 0.06
9565 H 140.97346747167072 90.82476408468574 132.80839312284684 H 0.0 **** 0.06
9566 C 139.1361114611525 139.56713430556215 97.33534577453149 C 0.0 **** -0.24
9567 H 139.04108820196927 139.8884976890439 96.2974719320868 H 0.0 **** 0.06
9568 H 138.60637792079905 138.62402138353102 97.47262769220553 H 0.0 **** 0.06
9569 H 138.7056805272768 140.32431642791278 97.99048112534072 H 0.0 **** 0.06
9570 H 140.1902730148601 139.4316673783064 97.57798345351837 H 0.0 **** 0.06
9571 C 93.13461209391818 5.8905933634496535 75.39628481811911 C 0.0 **** -0.24
9572 H 92.19605689385804 5.347122438498559 75.29090762052951 H 0.0 **** 0.06
9573 H 93.90845767869695 5.212932421998147 75.75708886718891 H 0.0 **** 0.06
9574 H 93.00408798826092 6.705436355894591 76.10786068820332 H 0.0 **** 0.06
9575 H 93.42961971827731 6.297374916244905 74.42844174449633 H 0.0 **** 0.06
9576 C 87.6782099766865 11.967337309403511 73.22252807564794 C 0.0 **** -0.24
9577 H 86.82478810943951 11.33640965522558 73.47375978118757 H 0.0 **** 0.06
9578 H 88.02208204200934 12.485043319061162 74.11781203814851 H 0.0 **** 0.06
9579 H 87.38130972469347 12.698090133126733 72.47078249961122 H 0.0 **** 0.06
9580 H 88.48382014894912 11.347356684801753 72.82889603702712 H 0.0 **** 0.06
9581 C 17.72934347852234 15.820647298875201 110.13147090266038 C 0.0 **** -0.24
9582 H 17.397505888158122 16.58352058784442 109.42712861453181 H 0.0 **** 0.06
9583 H 16.910113954326818 15.569261865325814 110.80599688434135 H 0.0 **** 0.06
9584 H 18.5718140285513 16.20142664708783 110.70831865601185 H 0.0 **** 0.06
9585 H 18.036549616164592 14.930388267149738 109.58462444427441 H 0.0 **** 0.06
9586 C 128.01247172976815 65.07785501549752 100.76872372549164 C 0.0 **** -0.24
9587 H 128.66483770009734 64.6090093050616 100.03141288379416 H 0.0 **** 0.06
9588 H 128.4905880626043 65.97887180517985 101.15452738599012 H 0.0 **** 0.06
9589 H 127.831496738127 64.38288009613514 101.58788350957468 H 0.0 **** 0.06
9590 H 127.0647325895985 65.34165175919642 100.29886021653235 H 0.0 **** 0.06
9591 C 66.53208777831898 42.78353951900124 15.665177593123303 C 0.0 **** -0.24
9592 H 66.7730147854731 43.16878347961722 16.655662897917296 H 0.0 **** 0.06
9593 H 66.14541984461565 41.76799413685393 15.756201914890084 H 0.0 **** 0.06
9594 H 67.43055422601267 42.77677934347034 15.049271614574991 H 0.0 **** 0.06
9595 H 65.77758673808086 43.419182775889226 15.201773099474792 H 0.0 **** 0.06
9596 C 62.86229389463884 16.031433770413514 26.833499272178756 C 0.0 **** -0.24
9597 H 62.7428904206283 14.958335645422494 26.68440494761211 H 0.0 **** 0.06
9598 H 63.62885089086947 16.211049067238037 27.58705523977872 H 0.0 **** 0.06
9599 H 61.915488934892124 16.458343238863392 27.167310084681617 H 0.0 **** 0.06
9600 H 63.15918741347062 16.497803691964748 25.894063678420352 H 0.0 **** 0.06
9601 C 27.323787741441983 119.05845990296012 55.50941439953422 C 0.0 **** -0.24
9602 H 27.496276956516247 118.73831957076527 54.4814885420372 H 0.0 **** 0.06
9603 H 27.26655554848528 120.14622801501685 55.54605994806016 H 0.0 **** 0.06
9604 H 28.144766486393415 118.71545897452108 56.13921926528019 H 0.0 **** 0.06
9605 H 26.387285106219664 118.63163201543068 55.86984845736572 H 0.0 **** 0.06
9606 C 91.65893850989252 94.26103845230557 44.76595665296064 C 0.0 **** -0.24
9607 H 92.08572274697104 95.26408666132247 44.77215422841506 H 0.0 **** 0.06
9608 H 91.50838972423048 93.92356655464582 45.791537800160754 H 0.0 **** 0.06
9609 H 92.33921240580231 93.57941645452624 44.25450302570596 H 0.0 **** 0.06
9610 H 90.70208526621624 94.27730363430882 44.24427743631284 H 0.0 **** 0.06
9611 C 106.94451971556865 124.07129988513464 136.28542773789792 C 0.0 **** -0.24
9612 H 106.82289013123457 124.97977766370218 135.69617632015456 H 0.0 **** 0.06
9613 H 107.71979484835268 124.22500765356526 137.0361735639485 H 0.0 **** 0.06
9614 H 107.23094974464871 123.24825188835808 135.63014401126486 H 0.0 **** 0.06
9615 H 106.00267611497546 123.83046754239189 136.77917194689638 H 0.0 **** 0.06
9616 C 139.7109073898294 28.43891951391226 74.95877765243463 C 0.0 **** -0.24
9617 H 140.3130219091339 29.298219284818238 74.66557660625696 H 0.0 **** 0.06
9618 H 140.22738035173165 27.883542445980723 75.74143777844625 H 0.0 **** 0.06
9619 H 139.55622102951145 27.792232734204063 74.09594848629735 H 0.0 **** 0.06
9620 H 138.74632667300642 28.782807641875067 75.33267190051217 H 0.0 **** 0.06
9621 C 94.24134659918097 14.895604685705777 35.544993934284264 C 0.0 **** -0.24
9622 H 94.3538085484691 15.550875621339344 36.4088377939712 H 0.0 **** 0.06
9623 H 93.19243176788227 14.61918237441418 35.433283044125176 H 0.0 **** 0.06
9624 H 94.83983320310556 13.995852644973084 35.69064071144339 H 0.0 **** 0.06
9625 H 94.57768224838235 15.415374131001222 34.64824150322812 H 0.0 **** 0.06
9626 C 95.49111243891048 92.3193165435091 87.04016341246357 C 0.0 **** -0.24
9627 H 94.8799113059268 92.51823342740818 87.9208251925278 H 0.0 **** 0.06
9628 H 96.29628847503821 93.0524913610052 86.98460109709444 H 0.0 **** 0.06
9629 H 94.87219339776381 92.39037213610422 86.14527109695048 H 0.0 **** 0.06
9630 H 95.91432461721865 91.31766911946391 87.11082284729844 H 0.0 **** 0.06
9631 C 2.9613989480229748 47.318126420306015 143.7131184856766 C 0.0 **** -0.24
9632 H 2.295655365852639 48.13910897629529 143.97735886111175 H 0.0 **** 0.06
9633 H 2.748285507516613 46.457894606722135 144.34826399373193 H 0.0 **** 0.06
9634 H 3.9970123492228993 47.628474112044785 143.8588139710534 H 0.0 **** 0.06
9635 H 2.8075240179196044 47.046350768339636 142.6685260177846 H 0.0 **** 0.06
9636 C 67.23806685269307 41.37724205611376 84.80615718415771 C 0.0 **** -0.24
9637 H 66.7449073008811 42.31585341335871 84.55193817524315 H 0.0 **** 0.06
9638 H 67.99809749902909 41.56075464995021 85.56525033828984 H 0.0 **** 0.06
9639 H 67.7063935746117 40.959756936569036 83.91525701071174 H 0.0 **** 0.06
9640 H 66.49968369838115 40.673517777365646 85.1920501847311 H 0.0 **** 0.06
9641 C 60.69716590790257 112.64161222258318 110.65222751701855 C 0.0 **** -0.24
9642 H 60.017059856382815 112.18682556647681 111.37251062528647 H 0.0 **** 0.06
9643 H 60.27047477426828 113.57746987902496 110.29187906869343 H 0.0 **** 0.06
9644 H 60.84544382336668 111.96147501276627 109.81280629973928 H 0.0 **** 0.06
9645 H 61.655323880636445 112.83889444110363 111.13254293832973 H 0.0 **** 0.06
9646 C 20.04898390408988 43.253555650893574 0.705106976556209 C 0.0 **** -0.24
9647 H 19.090524435224637 43.77175363330643 0.6847312174296007 H 0.0 **** 0.06
9648 H 20.572565390017843 43.42048581158362 -0.23559201553914022 H 0.0 **** 0.06
9649 H 19.881803501164114 42.1851941151413 0.8442014193702789 H 0.0 **** 0.06
9650 H 20.651426338051408 43.63658687974706 1.5287641176637123 H 0.0 **** 0.06
9651 C 118.84140215147744 6.549338139443677 117.3479297766907 C 0.0 **** -0.24
9652 H 119.7602104315983 7.058954700329167 117.63683836150602 H 0.0 **** 0.06
9653 H 118.00485484321155 6.960433100739834 117.9135360507658 H 0.0 **** 0.06
9654 H 118.93564990151248 5.483995606175739 117.55932647332645 H 0.0 **** 0.06
9655 H 118.66569657565032 6.693846589494797 116.28143514408896 H 0.0 **** 0.06
9656 C 57.678658356867146 22.312300057370805 114.83889950461032 C 0.0 **** -0.24
9657 H 57.33395471174276 23.056012671438054 115.55774362245195 H 0.0 **** 0.06
9658 H 57.356788544109705 21.32133240724636 115.1588132903883 H 0.0 **** 0.06
9659 H 58.766970604749716 22.340970933781932 114.78240753180235 H 0.0 **** 0.06
9660 H 57.258807156055525 22.53310841169889 113.8578543939691 H 0.0 **** 0.06
9661 C 62.997045064277216 91.3929594922276 73.74202435857677 C 0.0 **** -0.24
9662 H 63.433346670375784 92.00663950711237 74.53109134509012 H 0.0 **** 0.06
9663 H 63.502638207200235 90.42701263205993 73.71324598311708 H 0.0 **** 0.06
9664 H 63.11814503323478 91.89565490954594 72.78240046474181 H 0.0 **** 0.06
9665 H 61.937332087619595 91.2431496033754 73.94304724811508 H 0.0 **** 0.06
9666 C 137.9390290077773 85.38783067313473 54.28232663027603 C 0.0 **** -0.24
9667 H 138.23763015429196 84.46521524422424 53.78412883516711 H 0.0 **** 0.06
9668 H 137.6350993584795 85.165216297154 55.30525160953863 H 0.0 **** 0.06
9669 H 137.1052928301384 85.83831629462495 53.74415233776921 H 0.0 **** 0.06
9670 H 138.7796723974123 86.08100153599105 54.29595417724613 H 0.0 **** 0.06
9671 C 6.749003134873817 27.389235513942623 47.11923873270163 C 0.0 **** -0.24
9672 H 6.031342384451705 27.18570385514156 46.325453660982475 H 0.0 **** 0.06
9673 H 7.163009828743952 28.389224211840357 46.98655867996261 H 0.0 **** 0.06
9674 H 7.551852678481168 26.653387512740636 47.08079136153309 H 0.0 **** 0.06
9675 H 6.24686182241112 27.329497502192787 48.08628758917624 H 0.0 **** 0.06
9676 C 114.02606419363674 19.057428279329457 8.863340859397084 C 0.0 **** -0.24
9677 H 114.59969727272578 19.923537145531355 8.534369144561055 H 0.0 **** 0.06
9678 H 112.9862411667237 19.34670891852165 9.016542338828714 H 0.0 **** 0.06
9679 H 114.44091727682907 18.681602044349702 9.79900879641636 H 0.0 **** 0.06
9680 H 114.07871124575699 18.276810335231247 8.103856924880319 H 0.0 **** 0.06
9681 C 50.071393058747645 49.22385276845267 118.56747941238989 C 0.0 **** -0.24
9682 H 50.818926547967266 49.83838722671669 118.06485527681498 H 0.0 **** 0.06
9683 H 50.42634167085089 48.194289092907525 118.62301372274202 H 0.0 **** 0.06
9684 H 49.13758416137803 49.256007932467014 118.00636099740767 H 0.0 **** 0.06
9685 H 49.90427672152009 49.60604958403195 119.57423240913651 H 0.0 **** 0.06
9686 C 139.82159531554635 39.88335518566444 55.03848056636376 C 0.0 **** -0.24
9687 H 140.23394785832232 39.05145844928967 55.60903036748719 H 0.0 **** 0.06
9688 H 140.57120695271703 40.24727858472676 54.33512070693746 H 0.0 **** 0.06
9689 H 139.54037300613635 40.68660337750953 55.71936766611772 H 0.0 **** 0.06
9690 H 138.94159696399612 39.54713529614605 54.48965909509312 H 0.0 **** 0.06
9691 C 133.63687565404396 75.96069715710547 100.83023662416193 C 0.0 **** -0.24
9692 H 132.60329191419126 75.97510581219524 101.17780818873217 H 0.0 **** 0.06
9693 H 133.93310942925845 76.96558204386452 100.52829318890201 H 0.0 **** 0.06
9694 H 133.7235915217755 75.28493277756098 99.97873629691665 H 0.0 **** 0.06
9695 H 134.28593940643069 75.6162744896447 101.63525101014109 H 0.0 **** 0.06
9696 C 112.71617283401781 141.3444074703993 67.39185455516656 C 0.0 **** -0.24
9697 H 112.86806721427365 142.341151804553 66.97827783338782 H 0.0 **** 0.06
9698 H 113.6472409288408 140.78046333232083 67.33182017492793 H 0.0 **** 0.06
9699 H 111.94150689982337 140.82991281558313 66.82217842684682 H 0.0 **** 0.06
9700 H 112.40683033284398 141.4272990162944 68.43327813008715 H 0.0 **** 0.06
9701 C 102.11873545656348 109.83326366585807 84.56363804311007 C 0.0 **** -0.24
9702 H 102.16851393949403 108.88418079842192 85.09643694184265 H 0.0 **** 0.06
9703 H 102.89688503823155 109.86352756561713 83.80132892134607 H 0.0 **** 0.06
9704 H 102.26605316387199 110.65321549700421 85.26720497287134 H 0.0 **** 0.06
9705 H 101.14174763440386 109.93277726017119 84.09032128771757 H 0.0 **** 0.06
9706 C 103.58817862385222 119.08602051342558 10.366040592272846 C 0.0 **** -0.24
9707 H 102.62410213114549 118.63873729551028 10.120899406380538 H 0.0 **** 0.06
9708 H 104.09638689758842 119.37673441831902 9.44613858005944 H 0.0 **** 0.06
9709 H 104.19785563547937 118.36070155787576 10.905252303830345 H 0.0 **** 0.06
9710 H 103.43286469415358 119.96568993322444 10.989919707670524 H 0.0 **** 0.06
9711 C 35.647164686943086 122.0905447744382 142.0664002473739 C 0.0 **** -0.24
9712 H 35.637905798666225 122.22883017161732 143.14808290337413 H 0.0 **** 0.06
9713 H 35.78235602669287 121.03353718833606 141.83574858590129 H 0.0 **** 0.06
9714 H 36.46751013388791 122.66398097580506 141.63484241318756 H 0.0 **** 0.06
9715 H 34.70273149503282 122.43727656133896 141.6476391152969 H 0.0 **** 0.06
9716 C 80.25238168409803 54.80110421447644 34.87021784709236 C 0.0 **** -0.24
9717 H 81.190426093935 54.88520527696589 34.320395470851906 H 0.0 **** 0.06
9718 H 79.52248894273524 54.26546371225487 34.26332104410818 H 0.0 **** 0.06
9719 H 79.87520215608484 55.79747570553012 35.099059103690024 H 0.0 **** 0.06
9720 H 80.42490085842647 54.255657946925595 35.79875457722696 H 0.0 **** 0.06
9721 C 89.78007144386424 131.73661598547818 27.03292104556283 C 0.0 **** -0.24
9722 H 89.16558917810636 131.0155600336113 27.572123013447737 H 0.0 **** 0.06
9723 H 89.20451554447851 132.64621235586003 26.85923231110823 H 0.0 **** 0.06
9724 H 90.08521550845 131.31091863035968 26.076601647038586 H 0.0 **** 0.06
9725 H 90.66450526661055 131.97321304861538 27.624416216984685 H 0.0 **** 0.06
9726 C 90.7161584673287 4.8319899254718734 139.16189908091238 C 0.0 **** -0.24
9727 H 89.79864507242463 5.21787131570639 138.71531010894174 H 0.0 **** 0.06
9728 H 91.4806978442884 5.60875930816286 139.14852888280046 H 0.0 **** 0.06
9729 H 91.06251785175637 3.9705813234663765 138.59196642058563 H 0.0 **** 0.06
9730 H 90.51970262711868 4.532570383151068 140.19129012798714 H 0.0 **** 0.06
9731 C 38.941245730699166 134.448758913526 121.32870919152573 C 0.0 **** -0.24
9732 H 38.68806482344337 134.01264528256044 120.36299226964645 H 0.0 **** 0.06
9733 H 38.27440114796798 135.2859102668468 121.53610694631361 H 0.0 **** 0.06
9734 H 39.972947801695796 134.80196663281072 121.30911063671049 H 0.0 **** 0.06
9735 H 38.831369547237415 133.69394170984842 122.10782352333173 H 0.0 **** 0.06
9736 C 97.68901685427802 51.808553648450186 109.06937222214948 C 0.0 **** -0.24
9737 H 98.45949196365659 52.28182502889166 108.46120844851585 H 0.0 **** 0.06
9738 H 96.9103419187472 52.5355653062779 109.30062814495368 H 0.0 **** 0.06
9739 H 98.13115498547704 51.442013299774175 109.9962486856838 H 0.0 **** 0.06
9740 H 97.25473476921184 50.973450409814205 108.5192280846207 H 0.0 **** 0.06
9741 C 67.15135427260674 127.46658181820455 13.941170358458976 C 0.0 **** -0.24
9742 H 67.80149384588731 126.99289585458891 13.205555620072204 H 0.0 **** 0.06
9743 H 67.73720060410932 128.14660798804513 14.559974367046124 H 0.0 **** 0.06
9744 H 66.69748967124002 126.7016210339533 14.570429268535037 H 0.0 **** 0.06
9745 H 66.36901438046058 128.0249269065812 13.427352356374968 H 0.0 **** 0.06
9746 C 132.8152160330051 122.60181999110667 4.9596564245774175 C 0.0 **** -0.24
9747 H 133.66033548595996 122.79885371287749 4.299659649701937 H 0.0 **** 0.06
9748 H 132.05968333173607 122.03009019289924 4.420385351988841 H 0.0 **** 0.06
9749 H 132.38638946719536 123.54751773942716 5.291514004291514 H 0.0 **** 0.06
9750 H 133.15494422534172 122.03218714166555 5.824258089710213 H 0.0 **** 0.06
9751 C 27.354998205016926 93.35320528278854 65.50446321747495 C 0.0 **** -0.24
9752 H 27.521129300128052 93.71200026617976 66.52053041150882 H 0.0 **** 0.06
9753 H 26.288959447295042 93.38434582917296 65.27789632288895 H 0.0 **** 0.06
9754 H 27.715820793066314 92.32888680453303 65.4181118538801 H 0.0 **** 0.06
9755 H 27.89421833897191 93.98901203235792 64.80229135913353 H 0.0 **** 0.06
9756 C 31.53241414658335 134.5822194646206 60.50435205549222 C 0.0 **** -0.24
9757 H 31.574762601922686 133.98321312529853 59.59448012702241 H 0.0 **** 0.06
9758 H 30.53091238574433 134.9961383419955 60.620710434792855 H 0.0 **** 0.06
9759 H 32.256605807944766 135.3941063880381 60.43796716215297 H 0.0 **** 0.06
9760 H 31.76931001749294 133.9549519970147 61.364050718669986 H 0.0 **** 0.06
9761 C 122.02440692699163 10.39480865703539 6.6050057210196655 C 0.0 **** -0.24
9762 H 121.02008663665536 9.975735466340488 6.5564336318738015 H 0.0 **** 0.06
9763 H 122.71965623734401 9.733974381673889 6.087347193772018 H 0.0 **** 0.06
9764 H 122.32593067155064 10.495791658637515 7.6475510473522945 H 0.0 **** 0.06
9765 H 122.03184495158722 11.375901690644056 6.127557149135498 H 0.0 **** 0.06
9766 C 55.31266085270855 89.78535433861279 91.59411147954758 C 0.0 **** -0.24
9767 H 55.86607089004801 89.43624780743535 92.46566058365899 H 0.0 **** 0.06
9768 H 54.284187252541614 90.00597990317982 91.88126012529914 H 0.0 **** 0.06
9769 H 55.318013315797174 89.0120056032164 90.82557585314665 H 0.0 **** 0.06
9770 H 55.782588342595744 90.68835087768664 91.2031801006491 H 0.0 **** 0.06
9771 C 106.33157798863398 5.473351145118045 116.12190433076256 C 0.0 **** -0.24
9772 H 107.05375921311271 5.1012162200185 115.3949251071341 H 0.0 **** 0.06
9773 H 105.63704454563073 4.674784289088905 116.38584985833302 H 0.0 **** 0.06
9774 H 105.77882925057811 6.307295265365781 115.68951338854924 H 0.0 **** 0.06
9775 H 106.85589085874632 5.80897183578503 117.01588453378821 H 0.0 **** 0.06
9776 C 53.70827690313696 8.638254080541799 38.58249853055514 C 0.0 **** -0.24
9777 H 52.8374260510475 8.647556513586096 37.926789625219556 H 0.0 **** 0.06
9778 H 53.65540264431503 7.773532279277958 39.24393969426015 H 0.0 **** 0.06
9779 H 53.724671708920866 9.551488805384963 39.17743503898902 H 0.0 **** 0.06
9780 H 54.615322843301485 8.580190707216332 37.98046678479126 H 0.0 **** 0.06
9781 C 65.87655782375413 101.76825110714546 43.65756922790047 C 0.0 **** -0.24
9782 H 66.01314144431879 100.69541760183682 43.795663785631675 H 0.0 **** 0.06
9783 H 65.37574646982065 102.18592064683497 44.531240252852385 H 0.0 **** 0.06
9784 H 65.26846570571286 101.94475756756947 42.77040332622788 H 0.0 **** 0.06
9785 H 66.8491905905151 102.24478073316146 43.532357637916775 H 0.0 **** 0.06
9786 C 123.35276594264917 73.51766914320322 125.60874038832236 C 0.0 **** -0.24
9787 H 122.44086963751602 73.28507765290405 125.05859201459037 H 0.0 **** 0.06
9788 H 124.19891188056286 73.52460295589222 124.9213352025703 H 0.0 **** 0.06
9789 H 123.51517034316001 72.76437616460854 126.37895422211332 H 0.0 **** 0.06
9790 H 123.2540032255551 74.49869890243437 126.07458637249515 H 0.0 **** 0.06
9791 C 127.29167780211901 77.8986076588967 137.9935436821015 C 0.0 **** -0.24
9792 H 127.66473751753853 77.05029539741369 138.56899283957168 H 0.0 **** 0.06
9793 H 126.208586472984 77.82559297040355 137.90124052086233 H 0.0 **** 0.06
9794 H 127.74318277403944 77.88976847569037 137.00189405107406 H 0.0 **** 0.06
9795 H 127.55191010929082 78.8258728765526 138.5033419066385 H 0.0 **** 0.06
9796 C 119.08344956424237 50.793146712551646 102.52360550276276 C 0.0 **** -0.24
9797 H 118.12783620213268 50.802724346796865 101.9989148427008 H 0.0 **** 0.06
9798 H 119.74489733268591 51.54361327523513 102.08819215863554 H 0.0 **** 0.06
9799 H 119.54096315430381 49.807999174501774 102.42849202519437 H 0.0 **** 0.06
9800 H 118.92184384320957 51.01884271797903 103.57720635603124 H 0.0 **** 0.06
9801 C 120.28457572661469 89.15227953724735 105.99193365497003 C 0.0 **** -0.24
9802 H 119.9039688440453 88.19685803839761 106.3531386652589 H 0.0 **** 0.06
9803 H 121.20684273642561 88.98927363006848 105.43478330744962 H 0.0 **** 0.06
9804 H 120.4820670892523 89.80854450699829 106.83979824770604 H 0.0 **** 0.06
9805 H 119.54178034934566 89.61528610784782 105.33991373425941 H 0.0 **** 0.06
9806 C 100.26142727097474 23.649688471239585 129.17247215661195 C 0.0 **** -0.24
9807 H 99.67526578380321 22.946646953195327 129.7641411718006 H 0.0 **** 0.06
9808 H 101.13118529570025 23.970328672616198 129.74632297135514 H 0.0 **** 0.06
9809 H 99.64935464802855 24.516407620304022 128.9252559212835 H 0.0 **** 0.06
9810 H 100.59152080936022 23.163862599660085 128.25383707739707 H 0.0 **** 0.06
9811 C 23.39259083030086 114.25159731209628 85.54380904789417 C 0.0 **** -0.24
9812 H 24.161126283719426 114.5578171426826 84.83442583093415 H 0.0 **** 0.06
9813 H 23.479699904438093 114.84703534061528 86.4535114878702 H 0.0 **** 0.06
9814 H 23.521080962227785 113.19694046128338 85.78596825387518 H 0.0 **** 0.06
9815 H 22.40765340571616 114.40548185246168 85.10208656805563 H 0.0 **** 0.06
9816 C 94.08235989701514 84.79476454429538 83.14874547344596 C 0.0 **** -0.24
9817 H 93.84500334474966 85.67183422387873 83.74994135970405 H 0.0 **** 0.06
9818 H 93.20194883619452 84.15757986880568 83.0727132592441 H 0.0 **** 0.06
9819 H 94.89407591649405 84.23986180754946 83.61981020263482 H 0.0 **** 0.06
9820 H 94.38993122701201 85.11096346070137 82.15137890496527 H 0.0 **** 0.06
9821 C 2.5752851938041914 65.0236002524826 81.69253945676223 C 0.0 **** -0.24
9822 H 2.8156248482124795 65.83060495585687 82.38425697790245 H 0.0 **** 0.06
9823 H 1.9073162617270434 64.31384772292722 82.1800748175371 H 0.0 **** 0.06
9824 H 3.4929657385259816 64.51484646134531 81.39641630925433 H 0.0 **** 0.06
9825 H 2.0867236426628146 65.43592848419644 80.80909733446993 H 0.0 **** 0.06
9826 C 6.904637981473456 131.58426528050768 110.92708072263804 C 0.0 **** -0.24
9827 H 6.097646756722639 132.20141904840008 110.53088969659183 H 0.0 **** 0.06
9828 H 7.2080807088970005 130.8564285395115 110.17428851738316 H 0.0 **** 0.06
9829 H 6.557842142712474 131.06163536773872 111.81844737559237 H 0.0 **** 0.06
9830 H 7.753426375851717 132.2169263890587 111.1843044107161 H 0.0 **** 0.06
9831 C 6.848372012935727 29.210362772544173 33.75997222539351 C 0.0 **** -0.24
9832 H 6.300539973552649 29.763308130916933 34.52277519322902 H 0.0 **** 0.06
9833 H 6.285219618364234 28.32089607323129 33.47982546082994 H 0.0 **** 0.06
9834 H 7.821489659271528 28.91568281825515 34.1543790228654 H 0.0 **** 0.06
9835 H 6.988815648675164 29.843432144541957 32.88384229669984 H 0.0 **** 0.06
9836 C 86.71867631641057 132.40153043984353 99.11863614387505 C 0.0 **** -0.24
9837 H 86.40768552002397 131.44490520367697 98.70014393413237 H 0.0 **** 0.06
9838 H 87.80742432412102 132.43329042781653 99.18118269438787 H 0.0 **** 0.06
9839 H 86.29488597697024 132.5181265118951 100.1156140570439 H 0.0 **** 0.06
9840 H 86.36841826410638 133.21028482908594 98.4775047076626 H 0.0 **** 0.06
9841 C 48.65401179339911 117.7355961856316 105.43802926770628 C 0.0 **** -0.24
9842 H 49.47467682948404 117.06411276271838 105.18698190703181 H 0.0 **** 0.06
9843 H 48.9277026362582 118.75739529176364 105.17478258989574 H 0.0 **** 0.06
9844 H 48.45073148878565 117.6769165433136 106.50660713067141 H 0.0 **** 0.06
9845 H 47.763308949578786 117.44309806804999 104.88197963732175 H 0.0 **** 0.06
9846 C 80.37006068940599 18.098816205457183 113.23608143489439 C 0.0 **** -0.24
9847 H 80.86760200791151 17.495030277985393 112.47756771847106 H 0.0 **** 0.06
9848 H 80.45365110111099 17.606705141549583 114.20524615518836 H 0.0 **** 0.06
9849 H 79.3177382317121 18.213326000473387 112.975068272314 H 0.0 **** 0.06
9850 H 80.8411232544037 19.081215819405088 113.284216746707 H 0.0 **** 0.06
9851 C 73.20746952270814 31.89568803945739 14.191668732477922 C 0.0 **** -0.24
9852 H 72.21394065967306 31.4568698947867 14.288358805861662 H 0.0 **** 0.06
9853 H 73.55087245161958 31.790710775512906 13.162396120572282 H 0.0 **** 0.06
9854 H 73.8985189523695 31.380161880542488 14.85898678611261 H 0.0 **** 0.06
9855 H 73.16557124326846 32.95178956857279 14.455636407117368 H 0.0 **** 0.06
9856 C 21.626760789114655 90.11680932466203 59.20930334683078 C 0.0 **** -0.24
9857 H 20.799347683466237 90.79320570650287 59.42702437448909 H 0.0 **** 0.06
9858 H 22.00153273891982 90.31286791389641 58.2051495373895 H 0.0 **** 0.06
9859 H 21.279581021666274 89.0851428373453 59.27373474111715 H 0.0 **** 0.06
9860 H 22.425891508248696 90.27662470306518 59.93357612834927 H 0.0 **** 0.06
9861 C 9.292118337751944 117.39214995365666 20.988508206656064 C 0.0 **** -0.24
9862 H 8.520822815366508 117.16812613559955 21.725739828323412 H 0.0 **** 0.06
9863 H 9.49142152335753 118.46369251892656 20.985927509164753 H 0.0 **** 0.06
9864 H 8.949462416407421 117.08333134727559 20.000646420578533 H 0.0 **** 0.06
9865 H 10.20431136555338 116.85180411293999 21.242232789384417 H 0.0 **** 0.06
9866 C 14.842009266594346 59.440493743453004 121.01697562463998 C 0.0 **** -0.24
9867 H 14.511088053700092 60.47038708123995 120.8848516672259 H 0.0 **** 0.06
9868 H 14.548668000175468 59.089422750415594 122.00761686537335 H 0.0 **** 0.06
9869 H 15.926082599526154 59.39144922592524 120.92073900355639 H 0.0 **** 0.06
9870 H 14.379538216340308 58.81028409136073 120.25687152054176 H 0.0 **** 0.06
9871 C 0.9228275704049267 133.84959050577217 60.02387789049516 C 0.0 **** -0.24
9872 H 0.9003938015421014 134.92175813586553 60.22262209412192 H 0.0 **** 0.06
9873 H 1.7497013378963473 133.6217557899311 59.35172539186297 H 0.0 **** 0.06
9874 H -0.016882294528102193 133.54811202533236 59.560654391261636 H 0.0 **** 0.06
9875 H 1.055833503851865 133.31013987436765 60.9610477179844 H 0.0 **** 0.06
9876 C 104.83338626386296 94.38728806607895 14.902132997173481 C 0.0 **** -0.24
9877 H 105.743208087378 94.29956841716194 14.307711900770158 H 0.0 **** 0.06
9878 H 104.81944706903673 95.35440574113994 15.404485450793544 H 0.0 **** 0.06
9879 H 104.80640376867667 93.59096002572932 15.64584092886247 H 0.0 **** 0.06
9880 H 103.9640078110339 94.30342025720988 14.249428449460055 H 0.0 **** 0.06
9881 C 77.78009413396035 30.151466969552672 100.81750971551062 C 0.0 **** -0.24
9882 H 76.83752617087376 29.92158514014065 100.31939634243093 H 0.0 **** 0.06
9883 H 78.46401241333952 29.309455406476303 100.70569173619909 H 0.0 **** 0.06
9884 H 77.59559441986441 30.333017925854392 101.87627172689531 H 0.0 **** 0.06
9885 H 78.22075696470704 31.04093098481661 100.36724875791376 H 0.0 **** 0.06
9886 C 61.519116176312025 68.44817129074079 3.195407162526635 C 0.0 **** -0.24
9887 H 61.868420794557665 67.53312001339529 3.672047772163495 H 0.0 **** 0.06
9888 H 60.443921923390974 68.54903921281115 3.3477092782462705 H 0.0 **** 0.06
9889 H 61.73224927383126 68.40545447186301 2.1269842677611734 H 0.0 **** 0.06
9890 H 62.03073082943388 69.30510400334305 3.63405358769117 H 0.0 **** 0.06
9891 C 45.10296474349707 18.914687140089512 101.32461609651025 C 0.0 **** -0.24
9892 H 45.45676274887603 19.175513038068715 100.3264133191665 H 0.0 **** 0.06
9893 H 44.229721007149806 19.519257524759553 101.56981178726517 H 0.0 **** 0.06
9894 H 45.89261918109966 19.10439614315274 102.05058730335216 H 0.0 **** 0.06
9895 H 44.83230065939375 17.858999170560878 101.34892187362388 H 0.0 **** 0.06
9896 C 139.70630810292826 108.32772318445997 14.259168542922993 C 0.0 **** -0.24
9897 H 140.10157801967543 109.33788057762193 14.145838531776917 H 0.0 **** 0.06
9898 H 139.5829537245744 108.10388041280673 15.319439766836808 H 0.0 **** 0.06
9899 H 140.39965884918908 107.61467387512259 13.815384547159539 H 0.0 **** 0.06
9900 H 138.7411212689087 108.2578202798693 13.757650994911046 H 0.0 **** 0.06
9901 C 28.888015473043197 59.219466576318126 51.08723703726321 C 0.0 **** -0.24
9902 H 29.39975659790761 58.53071922784258 51.75953906285088 H 0.0 **** 0.06
9903 H 28.546284872402595 60.08820551134468 51.65049877403203 H 0.0 **** 0.06
9904 H 28.031607574187348 58.7189631177836 50.63633609696848 H 0.0 **** 0.06
9905 H 29.575254999507962 59.54087191155476 50.30444309778636 H 0.0 **** 0.06
9906 C 33.30045702640288 137.4988685050641 131.18311453694136 C 0.0 **** -0.24
9907 H 32.526038382137955 138.2663537211998 131.16333706069443 H 0.0 **** 0.06
9908 H 33.487886027208305 137.1985362449851 132.21470305028313 H 0.0 **** 0.06
9909 H 34.2172070423899 137.89800370137914 130.7482922392371 H 0.0 **** 0.06
9910 H 32.97052235210222 136.6353793539419 130.6071914447895 H 0.0 **** 0.06
9911 C 43.62147354277356 20.0144711159855 10.09491287757848 C 0.0 **** -0.24
9912 H 43.06682178455782 20.20925579105031 9.177491918442861 H 0.0 **** 0.06
9913 H 43.48118739676599 20.844783136928058 10.787631203355915 H 0.0 **** 0.06
9914 H 44.6813418592001 19.90931167766597 9.862496110418768 H 0.0 **** 0.06
9915 H 43.25607205109246 19.094784173258013 10.551186423364221 H 0.0 **** 0.06
9916 C 67.16365611463546 4.11877308308258 65.60166978392755 C 0.0 **** -0.24
9917 H 67.72215994871083 4.90915778707128 66.10323073498057 H 0.0 **** 0.06
9918 H 67.57278565896507 3.963826467943008 64.60243480862272 H 0.0 **** 0.06
9919 H 66.11576817477278 4.4078489169260635 65.52448881567403 H 0.0 **** 0.06
9920 H 67.24472428598767 3.1959127661477176 66.174911119397 H 0.0 **** 0.06
9921 C 136.2366741919701 41.6813272422135 121.19272755631926 C 0.0 **** -0.24
9922 H 136.695713828844 41.0031655116326 121.9123421693298 H 0.0 **** 0.06
9923 H 135.15553269326097 41.68810784203643 121.33904596463805 H 0.0 **** 0.06
9924 H 136.46436478140896 41.345088627844206 120.18141481217003 H 0.0 **** 0.06
9925 H 136.6299494570616 42.68703363607446 121.33913140629329 H 0.0 **** 0.06
9926 C 20.59503855282769 99.50031434962868 117.26142678103372 C 0.0 **** -0.24
9927 H 20.556869196044005 98.49434637933868 117.67979558369296 H 0.0 **** 0.06
9928 H 19.633960802673784 99.74142623236264 116.80728637075089 H 0.0 **** 0.06
9929 H 21.377862747223332 99.54801243360222 116.50349595765908 H 0.0 **** 0.06
9930 H 20.813382395899623 100.21615537292568 118.05437036361656 H 0.0 **** 0.06
9931 C 97.1253705017708 27.911711227234377 129.3231759128124 C 0.0 **** -0.24
9932 H 96.33138682706011 28.16058751087948 130.02691478066 H 0.0 **** 0.06
9933 H 96.8272719716342 27.046688525737494 128.72994161659054 H 0.0 **** 0.06
9934 H 98.03793956037731 27.678958899766457 129.8727848684324 H 0.0 **** 0.06
9935 H 97.30488364801163 28.760609972554192 128.66306238556663 H 0.0 **** 0.06
9936 C 61.712377931266076 33.65080813654983 102.91941474747725 C 0.0 **** -0.24
9937 H 61.43344617963908 34.465711425724706 103.58840776783677 H 0.0 **** 0.06
9938 H 61.83431586203449 32.733557242063355 103.49648483264264 H 0.0 **** 0.06
9939 H 62.650723423831835 33.89455952056744 102.42185985796252 H 0.0 **** 0.06
9940 H 60.930614423669795 33.51006085946986 102.17300405744425 H 0.0 **** 0.06
9941 C 37.654271913368596 76.45460511817717 117.05360100986849 C 0.0 **** -0.24
9942 H 37.43114322132834 75.41551392248957 117.29478133897356 H 0.0 **** 0.06
9943 H 36.91300943681459 77.10322336439089 117.52099937454761 H 0.0 **** 0.06
9944 H 37.626888623713235 76.59125344246596 115.9731926489714 H 0.0 **** 0.06
9945 H 38.645622814515896 76.70901033566739 117.42777242292135 H 0.0 **** 0.06
9946 C 36.140123799437355 63.764017962519034 24.26903944128219 C 0.0 **** -0.24
9947 H 35.11941321797249 63.75221887573659 24.6513058241825 H 0.0 **** 0.06
9948 H 36.29953355907663 62.89523290964701 23.63062347773345 H 0.0 **** 0.06
9949 H 36.84119252293538 63.73646158026136 25.103381217419567 H 0.0 **** 0.06
9950 H 36.29960100932826 64.67487063681615 23.690573891912038 H 0.0 **** 0.06
9951 C 80.80495526638435 74.08569852524388 62.1179683576256 C 0.0 **** -0.24
9952 H 80.30132946393269 73.20795720877804 62.523327631899335 H 0.0 **** 0.06
9953 H 80.26986412257986 74.98416363695982 62.42456056826241 H 0.0 **** 0.06
9954 H 80.8193009112266 74.02429318850892 61.029935053907025 H 0.0 **** 0.06
9955 H 81.82735667799557 74.12344264878465 62.49334897899051 H 0.0 **** 0.06
9956 C 141.52811060217084 68.65315647527541 117.52404151432455 C 0.0 **** -0.24
9957 H 140.89807001799227 69.22793227839338 118.20399636780178 H 0.0 **** 0.06
9958 H 140.97853814777687 67.77930559649221 117.17212715540762 H 0.0 **** 0.06
9959 H 142.42805575999614 68.33101494255061 118.04733628452522 H 0.0 **** 0.06
9960 H 141.80470016415126 69.27569611331936 116.67358606220705 H 0.0 **** 0.06
9961 C 95.30539361524518 83.18076222183183 16.050042209048172 C 0.0 **** -0.24
9962 H 95.02632190435327 82.42673824375461 16.78498958854408 H 0.0 **** 0.06
9963 H 96.3302637922194 83.50470862178199 16.233200007832636 H 0.0 **** 0.06
9964 H 94.63370787193531 84.0359226653784 16.134118583905376 H 0.0 **** 0.06
9965 H 95.23125280925348 82.75737848340944 15.048195782493337 H 0.0 **** 0.06
9966 C 120.26393616403293 66.70647662759768 100.57710790161576 C 0.0 **** -0.24
9967 H 119.91148961189457 65.71091943917843 100.84661894766026 H 0.0 **** 0.06
9968 H 121.33720812167267 66.67136403028981 100.38748366639356 H 0.0 **** 0.06
9969 H 120.06126795661883 67.39684943161431 101.39501732374663 H 0.0 **** 0.06
9970 H 119.74683518509126 67.04397320887679 99.67910538808468 H 0.0 **** 0.06
9971 C 107.95800749126003 43.16207252569626 47.35102166815341 C 0.0 **** -0.24
9972 H 108.36641729673592 44.07018097429494 47.79263949182973 H 0.0 **** 0.06
9973 H 107.81099532724328 42.413926348241944 48.13062519657848 H 0.0 **** 0.06
9974 H 108.65115818286027 42.777378037678375 46.602975437972276 H 0.0 **** 0.06
9975 H 107.0010798269001 43.386300502007145 46.87813772677771 H 0.0 **** 0.06
9976 C 55.47614888023426 108.67557867416208 90.95838685547903 C 0.0 **** -0.24
9977 H 54.81266664746313 108.74569255388595 91.82139574651336 H 0.0 **** 0.06
9978 H 55.65909473956886 107.62546060082603 90.72653167917025 H 0.0 **** 0.06
9979 H 56.42195336103141 109.16755391916551 91.1859393776437 H 0.0 **** 0.06
9980 H 55.01006159906798 109.16187941059327 90.10199203159493 H 0.0 **** 0.06
9981 C 4.493301372459179 125.54023355724796 34.66023324020291 C 0.0 **** -0.24
9982 H 3.9100720100179736 124.7700049588559 35.1654345236324 H 0.0 **** 0.06
9983 H 4.656017883685333 126.37736272156133 35.33995748384672 H 0.0 **** 0.06
9984 H 3.950647240150861 125.88630847511882 33.7797262255429 H 0.0 **** 0.06
9985 H 5.454258493902913 125.12715850721726 34.35476265448156 H 0.0 **** 0.06
9986 C 135.4732987546593 67.35264546340285 44.46375667099235 C 0.0 **** -0.24
9987 H 134.47032946127288 67.77985717599705 44.45932249340244 H 0.0 **** 0.06
9988 H 135.5243651217778 66.53844436650297 43.74119824747687 H 0.0 **** 0.06
9989 H 135.70035366153402 66.9703366985582 45.45929471894323 H 0.0 **** 0.06
9990 H 136.19711887222812 68.12208390068221 44.197430232747934 H 0.0 **** 0.06
9991 C 10.508516626238759 143.91338299639222 36.458359397474766 C 0.0 **** -0.24
9992 H 11.330838076927535 144.5165112093034 36.07259688382041 H 0.0 **** 0.06
9993 H 10.8804844896855 143.2505178338293 37.24044356058525 H 0.0 **** 0.06
9994 H 10.083545522463794 143.319653917922 35.64878527658385 H 0.0 **** 0.06
9995 H 9.741579308735254 144.5679604844334 36.870564798946276 H 0.0 **** 0.06
9996 C 13.784562837123048 86.99947361262386 79.56700374320761 C 0.0 **** -0.24
9997 H 12.980129501998164 86.30612536412039 79.81294707434553 H 0.0 **** 0.06
9998 H 13.5101000363872 87.57763633445254 78.68469374483016 H 0.0 **** 0.06
9999 H 14.697782585150975 86.43930508944831 79.36564132672927 H 0.0 **** 0.06
10000 H 13.951581123474341 87.67483700639215 80.40652152462708 H 0.0 **** 0.06
10001 C 100.93495729435028 71.63569144411639 9.849957983259344 C 0.0 **** -0.24
10002 H 100.12836617614954 71.35850042612941 9.170521565519664 H 0.0 **** 0.06
10003 H 101.05525904007021 70.86026754774457 10.60536124807146 H 0.0 **** 0.06
10004 H 100.69252711820388 72.58213713333785 10.334695153905727 H 0.0 **** 0.06
10005 H 101.86240682202151 71.74289199060294 9.286739245638785 H 0.0 **** 0.06
10006 C 121.57760677666515 7.506509029618982 36.14677485831756 C 0.0 **** -0.24
10007 H 122.35935725897893 6.971106790608005 36.6861759616424 H 0.0 **** 0.06
10008 H 121.5767381469911 7.192220837366147 35.103342038673404 H 0.0 **** 0.06
10009 H 121.76545615821745 8.578321180600703 36.204499971057494 H 0.0 **** 0.06
10010 H 120.6094359580204 7.282574997225872 36.59517951018958 H 0.0 **** 0.06
10011 C 8.08304619462471 37.73198374477667 78.51291110330774 C 0.0 **** -0.24
10012 H 7.631485739813144 36.73967797648423 78.53003850414478 H 0.0 **** 0.06
10013 H 9.034971930056429 37.707042229812856 79.04306221406007 H 0.0 **** 0.06
10014 H 7.4142682435262905 38.443135167615736 78.99808181032394 H 0.0 **** 0.06
10015 H 8.250368536591335 38.036303315146256 77.47965182556007 H 0.0 **** 0.06
10016 C 12.996719510076275 15.846453029810917 52.195800462977985 C 0.0 **** -0.24
10017 H 12.435817136266138 16.746191663908526 51.94045781496888 H 0.0 **** 0.06
10018 H 13.188274459853318 15.269359567815002 51.29138976218954 H 0.0 **** 0.06
10019 H 12.418398987581497 15.24540244122825 52.89682001892916 H 0.0 **** 0.06
10020 H 13.944416699804975 16.128979798865615 52.65465400720507 H 0.0 **** 0.06
10021 C 37.11187639689638 144.63745108486813 55.8035900867399 C 0.0 **** -0.24
10022 H 36.25917520531681 145.0060741439651 56.373755512936725 H 0.0 **** 0.06
10023 H 38.017701091097194 145.14423332483005 56.13873833688608 H 0.0 **** 0.06
10024 H 36.95471942913804 144.83646407925661 54.743381888973246 H 0.0 **** 0.06
10025 H 37.21749935954546 143.56396691571624 55.9606296626889 H 0.0 **** 0.06
10026 C 60.49037884296499 23.544168329869848 29.5629216017567 C 0.0 **** -0.24
10027 H 61.20141973795805 24.358381115878984 29.706543768865913 H 0.0 **** 0.06
10028 H 59.50571473385665 23.85782170638703 29.908345994723305 H 0.0 **** 0.06
10029 H 60.81522678290892 22.67400575652502 30.13205404993954 H 0.0 **** 0.06
10030 H 60.44028063444077 23.289241766689855 28.50488215884768 H 0.0 **** 0.06
10031 C 64.12164547142004 119.45004012921757 24.808749481579234 C 0.0 **** -0.24
10032 H 63.54461555529832 119.74783320791002 23.933333780326166 H 0.0 **** 0.06
10033 H 65.15308466438512 119.25504150998339 24.513816167134458 H 0.0 **** 0.06
10034 H 63.689395776349784 118.54743985927988 25.239619310848084 H 0.0 **** 0.06
10035 H 64.100571085453 120.25178457984438 25.547975206271467 H 0.0 **** 0.06
10036 C 14.700353574800403 65.50988975452934 56.07995551578213 C 0.0 **** -0.24
10037 H 13.761540241355476 66.0575362273939 56.15773551765919 H 0.0 **** 0.06
10038 H 14.97572844523981 65.41015908757265 55.02985914510259 H 0.0 **** 0.06
10039 H 14.581620616270214 64.52045011730397 56.52065671895592 H 0.0 **** 0.06
10040 H 15.481859436208055 66.05352539804043 56.61125843569819 H 0.0 **** 0.06
10041 C 60.162293796839066 135.2334653463023 20.90426456813654 C 0.0 **** -0.24
10042 H 59.86620998001675 134.40452541312507 20.2604362445162 H 0.0 **** 0.06
10043 H 60.672881533654135 135.9907871341538 20.309284925661018 H 0.0 **** 0.06
10044 H 60.8341681420018 134.8664334327007 21.68114641484067 H 0.0 **** 0.06
10045 H 59.27638112041873 135.66883715776288 21.366382523859528 H 0.0 **** 0.06
10046 C 28.50475512819378 44.8920854507668 99.57341471526846 C 0.0 **** -0.24
10047 H 29.469164432204536 45.397797011250844 99.60867607351366 H 0.0 **** 0.06
10048 H 28.048564570547114 44.91163509111534 100.56352628177893 H 0.0 **** 0.06
10049 H 28.647452708336573 43.85870251889057 99.25934631532996 H 0.0 **** 0.06
10050 H 27.85296375249311 45.40136047967391 98.86349017873889 H 0.0 **** 0.06
10051 C 91.50802806300425 135.20335097784246 131.1558401216353 C 0.0 **** -0.24
10052 H 91.85732613697162 134.27150533754283 131.6017633238106 H 0.0 **** 0.06
10053 H 92.27449312374213 135.96996641328533 131.26848545225673 H 0.0 **** 0.06
10054 H 90.5954603655869 135.52545799435964 131.65735000334746 H 0.0 **** 0.06
10055 H 91.30310270378367 135.04523334915635 130.09644578433392 H 0.0 **** 0.06
10056 C 64.85715825285706 109.53987515358129 131.3963646818477 C 0.0 **** -0.24
10057 H 63.886902556996574 109.49791736394418 130.90089182801907 H 0.0 **** 0.06
10058 H 65.51961602822092 110.20609758585427 130.84260813112175 H 0.0 **** 0.06
10059 H 65.29120522866316 108.5404098560657 131.42877224757083 H 0.0 **** 0.06
10060 H 64.7311595784069 109.91451948128979 132.4123941488053 H 0.0 **** 0.06
10061 C 118.7299383938714 63.76109740231436 58.29434950007038 C 0.0 **** -0.24
10062 H 118.96926208199413 64.8203816077039 58.383775493680574 H 0.0 **** 0.06
10063 H 119.26384105465819 63.33839963284686 57.44171384813582 H 0.0 **** 0.06
10064 H 117.65757510218181 63.64240887954509 58.14622182056779 H 0.0 **** 0.06
10065 H 119.03093795770694 63.24297005189919 59.20447101728732 H 0.0 **** 0.06
10066 C 81.02200037990217 0.9776782005421296 134.5395291985658 C 0.0 **** -0.24
10067 H 80.91039872078932 1.8717770604527857 135.1540584952409 H 0.0 **** 0.06
10068 H 80.64871129183464 1.1786942007613561 133.53568424409633 H 0.0 **** 0.06
10069 H 80.45251942621042 0.16057910780418183 134.98262785677483 H 0.0 **** 0.06
10070 H 82.07482593037469 0.7010824005221821 134.48831399722962 H 0.0 **** 0.06
10071 C 82.96833000722665 114.24636462950345 134.68153364373816 C 0.0 **** -0.24
10072 H 82.96570636642849 114.90153525043634 135.55299304977495 H 0.0 **** 0.06
10073 H 82.885395928386 113.20907577965416 135.00685149155737 H 0.0 **** 0.06
10074 H 83.89791214453032 114.38085034115188 134.12849066331142 H 0.0 **** 0.06
10075 H 82.12362209299548 114.49422793693289 134.03901578130467 H 0.0 **** 0.06
10076 C 125.43155345626903 139.49531762449152 70.6792107563598 C 0.0 **** -0.24
10077 H 124.82506907188915 139.09119368440338 69.86988180975133 H 0.0 **** 0.06
10078 H 126.00078773439319 138.6893050624476 71.14379879434935 H 0.0 **** 0.06
10079 H 124.78226869626556 139.9569457379365 71.42404680588945 H 0.0 **** 0.06
10080 H 126.11686902645218 140.2429439466964 70.28189693035768 H 0.0 **** 0.06
10081 C 26.55464815354361 55.7735450725891 35.49476688004094 C 0.0 **** -0.24
10082 H 25.755334465781203 55.10859185071401 35.82372096340103 H 0.0 **** 0.06
10083 H 26.439938187734583 56.745004588609135 35.97439786114555 H 0.0 **** 0.06
10084 H 26.503587264447106 55.893018401808504 34.41245555082705 H 0.0 **** 0.06
10085 H 27.518795382642736 55.34373153889098 35.76730011611494 H 0.0 **** 0.06
10086 C 96.44933871876886 113.31047710342317 135.42140263170032 C 0.0 **** -0.24
10087 H 97.0535276734689 114.16098695103555 135.7370806335899 H 0.0 **** 0.06
10088 H 96.11931083247781 113.4603874477731 134.39265706085777 H 0.0 **** 0.06
10089 H 95.57957844984857 113.22187556150696 136.07313246891923 H 0.0 **** 0.06
10090 H 97.04402789993101 112.39916059403733 135.48369942907638 H 0.0 **** 0.06
10091 C 106.85330529660258 118.64058176807416 37.90954602183797 C 0.0 **** -0.24
10092 H 106.87357169787039 118.09726806336411 38.8541291977019 H 0.0 **** 0.06
10093 H 105.867267556546 118.54321498071212 37.4555832826666 H 0.0 **** 0.06
10094 H 107.60605058797496 118.22657459582732 37.23733581488895 H 0.0 **** 0.06
10095 H 107.06808672872752 119.69314556646887 38.090496912202845 H 0.0 **** 0.06
10096 C 74.68095097888948 3.4373588897746004 116.99998852665077 C 0.0 **** -0.24
10097 H 74.59478603821776 4.523686805152067 117.05384260260554 H 0.0 **** 0.06
10098 H 74.1012071631124 2.986988439931963 117.80533344457488 H 0.0 **** 0.06
10099 H 75.72751182909326 3.1513246793061853 117.10030638603006 H 0.0 **** 0.06
10100 H 74.29958735199273 3.0906204517152105 116.039879101267 H 0.0 **** 0.06
10101 C 141.49228785464132 142.4919944547086 6.822105679357094 C 0.0 **** -0.24
10102 H 140.51693446359013 142.67239978461916 6.369004562422674 H 0.0 **** 0.06
10103 H 141.7935869498149 143.3678391377138 7.3972803219699585 H 0.0 **** 0.06
10104 H 142.22623342902435 142.30062416037734 6.038425732115229 H 0.0 **** 0.06
10105 H 141.43087901507732 141.62674010789013 7.482113076052258 H 0.0 **** 0.06
10106 C 9.936985446695587 68.849970715222 97.71493577797966 C 0.0 **** -0.24
10107 H 9.033876992872393 68.24748975310906 97.80966530737703 H 0.0 **** 0.06
10108 H 10.80934378491088 68.23433889832985 97.93928459147195 H 0.0 **** 0.06
10109 H 9.891936780983599 69.68482782659865 98.4145421913019 H 0.0 **** 0.06
10110 H 10.013869768060005 69.23284167571828 96.69754475059601 H 0.0 **** 0.06
10111 C 142.20074478649633 23.99022785583594 141.01832522396157 C 0.0 **** -0.24
10112 H 143.03303614445917 23.34045585980816 141.2897628160579 H 0.0 **** 0.06
10113 H 142.1239593924561 24.80171404593694 141.74232804445563 H 0.0 **** 0.06
10114 H 141.27517272689735 23.413546440914295 141.01924964253416 H 0.0 **** 0.06
10115 H 142.37109894107977 24.40345510718918 140.02438730881678 H 0.0 **** 0.06
10116 C 139.99009080837473 35.926047714795345 96.57762630245759 C 0.0 **** -0.24
10117 H 139.96426282755746 37.014591978422345 96.57444999883964 H 0.0 **** 0.06
10118 H 139.69516516391303 35.557746809845696 97.5601557927055 H 0.0 **** 0.06
10119 H 141.00004015866662 35.58527637517386 96.35021458584518 H 0.0 **** 0.06
10120 H 139.29975293158225 35.544262082899365 95.82415412081562 H 0.0 **** 0.06
10121 C 138.7423667337157 18.068148937703 85.87545537944033 C 0.0 **** -0.24
10122 H 139.2247230375709 18.362791715496684 84.94325800641357 H 0.0 **** 0.06
10123 H 139.50471125830742 17.846272393236262 86.62379328571973 H 0.0 **** 0.06
10124 H 138.13186365360943 17.1812583499443 85.70329264521993 H 0.0 **** 0.06
10125 H 138.1104002984573 18.88146519723881 86.2308705493871 H 0.0 **** 0.06
10126 C 30.21039566437105 82.72751477954623 24.300970108326332 C 0.0 **** -0.24
10127 H 30.644444172492598 83.51467927039998 24.915795907343593 H 0.0 **** 0.06
10128 H 30.250933580974063 83.02275656327099 23.25218276483413 H 0.0 **** 0.06
10129 H 29.172805579034687 82.56787723904621 24.593246588244654 H 0.0 **** 0.06
10130 H 30.77333238850811 81.80500874410686 24.440220676831373 H 0.0 **** 0.06
10131 C 42.83280504971441 25.230768685771437 63.672631664794395 C 0.0 **** -0.24
10132 H 42.211334363744584 24.374812035279064 63.93843865909817 H 0.0 **** 0.06
10133 H 42.198598264341626 26.102388865382494 63.512139002536316 H 0.0 **** 0.06
10134 H 43.385293354290695 25.00823597442391 62.76030676742218 H 0.0 **** 0.06
10135 H 43.53399430986485 25.43433609603244 64.4810911669708 H 0.0 **** 0.06
10136 C 75.8629795424959 66.49775635173955 60.891596033987696 C 0.0 **** -0.24
10137 H 76.55539638660429 65.73492231129958 61.25012234487281 H 0.0 **** 0.06
10138 H 75.05739762109391 66.62408015802731 61.614734989701276 H 0.0 **** 0.06
10139 H 75.44673351129103 66.18773222271864 59.9331769344343 H 0.0 **** 0.06
10140 H 76.39421628113132 67.44070353735255 60.76924427979321 H 0.0 **** 0.06
10141 C 91.88486846245846 106.68607456032532 14.734378730121364 C 0.0 **** -0.24
10142 H 91.74563881262051 106.65287618865705 15.81494611330885 H 0.0 **** 0.06
10143 H 91.35096384226638 105.85544080805101 14.273646392792045 H 0.0 **** 0.06
10144 H 92.94767685303297 106.60869979248253 14.503717950910413 H 0.0 **** 0.06
10145 H 91.4968989963912 107.62786355005233 14.346529428949111 H 0.0 **** 0.06
10146 C 101.00329315919157 13.79700623665346 6.324872883755898 C 0.0 **** -0.24
10147 H 101.65621474518338 14.231875889441682 7.082608159850878 H 0.0 **** 0.06
10148 H 100.35300002986247 14.57124196673081 5.9189138538712776 H 0.0 **** 0.06
10149 H 100.39766114942432 13.010962161954723 6.77621476001843 H 0.0 **** 0.06
10150 H 101.60948159520234 13.373697982955235 5.523426917568912 H 0.0 **** 0.06
10151 C 111.09243660184708 1.9048695946282237 114.00057381875997 C 0.0 **** -0.24
10152 H 111.9941411546454 1.3964904020338622 113.65753382074949 H 0.0 **** 0.06
10153 H 110.23923106921129 1.566387679333502 113.41289346381315 H 0.0 **** 0.06
10154 H 111.21440531985868 2.9814187310329316 113.87890825869356 H 0.0 **** 0.06
10155 H 110.92428792458563 1.6743927793716011 115.05296556720116 H 0.0 **** 0.06
10156 C 51.81865442393618 111.9348594359591 14.739916092694955 C 0.0 **** -0.24
10157 H 51.555239449987255 111.09175446957549 15.3780888250364 H 0.0 **** 0.06
10158 H 50.92738135752674 112.29571209627163 14.227128075840085 H 0.0 **** 0.06
10159 H 52.55722256007937 111.61625395347902 14.004108669216492 H 0.0 **** 0.06
10160 H 52.237183736401334 112.73529208008303 15.350458241855875 H 0.0 **** 0.06
10161 C 142.44559271740414 77.5635810326965 100.53908870020577 C 0.0 **** -0.24
10162 H 142.74337797621158 76.88325258353984 99.74192937575465 H 0.0 **** 0.06
10163 H 141.44610412627463 77.29961215774816 100.88759978135396 H 0.0 **** 0.06
10164 H 142.4400923938087 78.5862704116459 100.16208594825974 H 0.0 **** 0.06
10165 H 143.15073307156962 77.48530696261423 101.36667081298914 H 0.0 **** 0.06
10166 C 54.34174820936377 113.95205525905071 133.70076582697664 C 0.0 **** -0.24
10167 H 55.171822299996194 114.13718675228954 133.018068759346 H 0.0 **** 0.06
10168 H 53.791934203509356 113.07043661490947 133.37277195648173 H 0.0 **** 0.06
10169 H 53.67641386638192 114.81511837892687 133.70536324794162 H 0.0 **** 0.06
10170 H 54.72873098912416 113.78615264373575 134.70590836636217 H 0.0 **** 0.06
10171 C 137.27530886366208 63.70981785985501 66.87941923634823 C 0.0 **** -0.24
10172 H 138.10278478773043 63.03761150399191 66.65144747021421 H 0.0 **** 0.06
10173 H 136.3356473030055 63.16050028184681 66.82472710731821 H 0.0 **** 0.06
10174 H 137.26176956402037 64.52644174921724 66.15693529319819 H 0.0 **** 0.06
10175 H 137.40234219654076 64.11533305073718 67.88286122837405 H 0.0 **** 0.06
10176 C 36.00508778330632 94.53919716662327 86.28720195286401 C 0.0 **** -0.24
10177 H 35.45877966477525 95.2892187156925 86.86019066508887 H 0.0 **** 0.06
10178 H 35.92202166570061 93.57186061459302 86.78267638515824 H 0.0 **** 0.06
10179 H 37.054268047096116 94.82624739846304 86.22177407847673 H 0.0 **** 0.06
10180 H 35.583258453155736 94.47196314794016 85.2833600384105 H 0.0 **** 0.06
10181 C 135.17595942042834 129.3563156833362 67.61590847302773 C 0.0 **** -0.24
10182 H 134.2378791845854 129.69937477596952 68.05280302155919 H 0.0 **** 0.06
10183 H 135.17492446361348 128.26784297844912 67.56131927278864 H 0.0 **** 0.06
10184 H 136.00805081941155 129.68897806685416 68.2377940027838 H 0.0 **** 0.06
10185 H 135.28291771589767 129.77182867366147 66.61380778805477 H 0.0 **** 0.06
10186 C 141.16616602900956 20.028611221592655 1.19401412998414 C 0.0 **** -0.24
10187 H 140.40278666014797 19.917275548271746 0.42432576451085424 H 0.0 **** 0.06
10188 H 142.1451336268173 19.807754052894296 0.7692277979203652 H 0.0 **** 0.06
10189 H 140.96038553217235 19.337648835442053 2.0128372843366833 H 0.0 **** 0.06
10190 H 141.15540392324783 21.051383281020392 1.5706364666636148 H 0.0 **** 0.06
10191 C 120.60716631144358 3.5588678637809217 62.70864924108338 C 0.0 **** -0.24
10192 H 121.53686475616762 4.116058776252675 62.58943504254103 H 0.0 **** 0.06
10193 H 120.43253791769693 3.367077064047489 63.76749489749284 H 0.0 **** 0.06
10194 H 120.68032012842441 2.61169229126439 62.17507749282282 H 0.0 **** 0.06
10195 H 119.77976453347434 4.141196207797659 62.303598775962826 H 0.0 **** 0.06
10196 C 91.44922266324429 92.72940549289598 5.096099095625988 C 0.0 **** -0.24
10197 H 91.38848908010482 93.81011768147229 4.962882920524379 H 0.0 **** 0.06
10198 H 90.45925544165758 92.33740802739882 5.333022836761785 H 0.0 **** 0.06
10199 H 92.13538250680378 92.50215781511403 5.911322998825739 H 0.0 **** 0.06
10200 H 91.81134340894354 92.26992559601214 4.176074795766596 H 0.0 **** 0.06
10201 C 57.557088221394366 56.500535313050534 4.166803993224249 C 0.0 **** -0.24
10202 H 56.711141636027605 56.7694693613787 4.798295631299595 H 0.0 **** 0.06
10203 H 57.88009338217512 55.486944303373434 4.404631314110105 H 0.0 **** 0.06
10204 H 58.37892779034382 57.19532780391012 4.344402089142989 H 0.0 **** 0.06
10205 H 57.25892109585686 56.55137511162741 3.1191696978257255 H 0.0 **** 0.06
10206 C 40.209044504623506 36.813040266547404 37.35024469740483 C 0.0 **** -0.24
10207 H 41.038553170178574 37.482074896238856 37.57983770183398 H 0.0 **** 0.06
10208 H 39.29985837543131 37.186355771725744 37.82254338879932 H 0.0 **** 0.06
10209 H 40.43167651740913 35.815460469819755 37.72726376695812 H 0.0 **** 0.06
10210 H 40.06652668286577 36.76999868406375 36.269984527911674 H 0.0 **** 0.06
10211 C 21.919429812858766 109.03844958537778 9.408598576584268 C 0.0 **** -0.24
10212 H 22.243813000599033 108.88419454569825 8.379784793945646 H 0.0 **** 0.06
10213 H 20.994810375899107 109.61538907469716 9.41512595557208 H 0.0 **** 0.06
10214 H 22.691482292093923 109.58278694847533 9.954100896632212 H 0.0 **** 0.06
10215 H 21.750024972233916 108.07347292425786 9.885327952898933 H 0.0 **** 0.06
10216 C 52.558010878810535 68.9854240391806 113.54868573117209 C 0.0 **** -0.24
10217 H 53.36006102058491 68.45316580639052 114.06047246203669 H 0.0 **** 0.06
10218 H 52.73642184512374 68.96459553394276 112.47346640090224 H 0.0 **** 0.06
10219 H 52.53280335758507 70.02010487719117 113.8925942955011 H 0.0 **** 0.06
10220 H 51.60468258512617 68.50601398330981 113.7689333618789 H 0.0 **** 0.06
10221 C 135.88893618407417 113.74322428821944 95.39688922771337 C 0.0 **** -0.24
10222 H 136.40868401526416 114.31743407473584 94.62973981509302 H 0.0 **** 0.06
10223 H 135.19517448721564 113.0485316497602 94.9222422113914 H 0.0 **** 0.06
10224 H 135.33624563753773 114.42213808785817 96.04556793735311 H 0.0 **** 0.06
10225 H 136.61542190445624 113.18548845691208 95.98727393831676 H 0.0 **** 0.06
10226 C 86.872942779802 63.79583268876961 45.25710883999912 C 0.0 **** -0.24
10227 H 87.44005787405197 64.69628324589172 45.01846430021445 H 0.0 **** 0.06
10228 H 87.33174266716044 63.2945999766019 46.1099894724604 H 0.0 **** 0.06
10229 H 86.87670340714573 63.12713723982259 44.39701692672867 H 0.0 **** 0.06
10230 H 85.84661699538972 64.06696180802875 45.50273709867915 H 0.0 **** 0.06
10231 C 94.46500152784857 132.6624494300691 87.18041414589726 C 0.0 **** -0.24
10232 H 94.43017197779444 131.70926979897942 86.65368712875933 H 0.0 **** 0.06
10233 H 95.30966165932165 133.2481344669346 86.81700223677723 H 0.0 **** 0.06
10234 H 94.58095165629068 132.48335397642435 88.2502035476749 H 0.0 **** 0.06
10235 H 93.53958451359534 133.21091951421263 87.00307312534598 H 0.0 **** 0.06
10236 C 121.7806338991196 23.06490075238166 127.49661190406295 C 0.0 **** -0.24
10237 H 120.96489002424072 22.768488475124315 128.15611140734762 H 0.0 **** 0.06
10238 H 121.5561397320172 22.74748216641352 126.47751977060798 H 0.0 **** 0.06
10239 H 122.70544084211487 22.592526689867952 127.82831775893692 H 0.0 **** 0.06
10240 H 121.89524685855129 24.14780988670924 127.5229273683817 H 0.0 **** 0.06
10241 C 14.308462708113609 81.96532914250997 10.839639120885785 C 0.0 **** -0.24
10242 H 13.656976593810953 81.20033658962507 11.261105723935337 H 0.0 **** 0.06
10243 H 13.909257501402493 82.9521122528789 11.072976148388499 H 0.0 **** 0.06
10244 H 14.361034987494662 81.84142089935156 9.757977991241233 H 0.0 **** 0.06
10245 H 15.307424297491508 81.86663502590582 11.264591020658308 H 0.0 **** 0.06
10246 C 124.84515029045241 11.238138712058849 123.56124511089712 C 0.0 **** -0.24
10247 H 125.04264374607915 12.223877776611225 123.14124429706202 H 0.0 **** 0.06
10248 H 125.612796691837 10.54033056145412 123.22601876156662 H 0.0 **** 0.06
10249 H 123.86642797232392 10.891210801245485 123.22865440330301 H 0.0 **** 0.06
10250 H 124.85731940106642 11.298477220568714 124.64951349424572 H 0.0 **** 0.06
10251 C 123.30636606326789 113.02305769898015 107.7318008322837 C 0.0 **** -0.24
10252 H 123.15245653137013 114.10165625911469 107.78313277348197 H 0.0 **** 0.06
10253 H 123.91767883366921 112.70296487170782 108.57710745642977 H 0.0 **** 0.06
10254 H 123.81446319452021 112.7725978048095 106.80034119233581 H 0.0 **** 0.06
10255 H 122.34214651062483 112.51671966181897 107.76728759440063 H 0.0 **** 0.06
10256 C 34.63285155348416 99.31517379098312 7.944945074018278 C 0.0 **** -0.24
10257 H 33.829887561548276 99.45499336301512 8.669246977097544 H 0.0 **** 0.06
10258 H 34.204423660774296 99.16320942349236 6.954218940488346 H 0.0 **** 0.06
10259 H 35.22535251057246 98.44501498646281 8.223882481147854 H 0.0 **** 0.06
10260 H 35.268573649509506 100.20012948734177 7.934142384157269 H 0.0 **** 0.06
10261 C 37.39783770402629 79.90608548366137 81.43893329399884 C 0.0 **** -0.24
10262 H 36.339899519212835 79.64561479625459 81.45288601082154 H 0.0 **** 0.06
10263 H 37.837141644133546 79.59209362630926 80.49133521458361 H 0.0 **** 0.06
10264 H 37.906409881632925 79.40078962306958 82.25998586820992 H 0.0 **** 0.06
10265 H 37.50875232894365 80.98403599209811 81.55145659393952 H 0.0 **** 0.06
10266 C 103.59557045115154 14.137501440082616 81.43461296153517 C 0.0 **** -0.24
10267 H 103.59873576827125 13.908747177619517 82.50000881952285 H 0.0 **** 0.06
10268 H 104.59708961845163 13.993309448081703 81.02907266537706 H 0.0 **** 0.06
10269 H 103.28864726978401 15.173726349272528 81.287881725859 H 0.0 **** 0.06
10270 H 102.89608702577021 13.476404779172043 80.92329796624605 H 0.0 **** 0.06
10271 C 31.14817809098176 22.283156314288362 114.19266972539839 C 0.0 **** -0.24
10272 H 31.227857068418245 21.20186333231905 114.07618930568185 H 0.0 **** 0.06
10273 H 32.14680480172515 22.721967831602832 114.20237127290932 H 0.0 **** 0.06
10274 H 30.64140786652385 22.51122094663149 115.13020657614447 H 0.0 **** 0.06
10275 H 30.57853208944593 22.696886520389448 113.36093261688461 H 0.0 **** 0.06
10276 C 22.354835403044376 52.74631070505089 22.99445083701476 C 0.0 **** -0.24
10277 H 23.408538069104566 52.48673124842641 23.09141499890132 H 0.0 **** 0.06
10278 H 21.911905230300135 52.84490564646396 23.98454462684399 H 0.0 **** 0.06
10279 H 21.837697341219553 51.962264150527716 22.440938289047565 H 0.0 **** 0.06
10280 H 22.261896192214692 53.691147379073655 22.45723399075858 H 0.0 **** 0.06
10281 C 33.00497110052129 56.05539071129806 106.56633359805791 C 0.0 **** -0.24
10282 H 32.29573818505571 56.476491480901274 107.27868512356027 H 0.0 **** 0.06
10283 H 33.79399202555942 55.531031617612854 107.10617288286939 H 0.0 **** 0.06
10284 H 33.442261321263516 56.85595945603259 105.97092132010953 H 0.0 **** 0.06
10285 H 32.48732338547342 55.355327212952915 105.90986587079804 H 0.0 **** 0.06
10286 C 79.44026968802416 46.841035871016174 58.02042421387506 C 0.0 **** -0.24
10287 H 79.39021094551401 47.669276757775464 57.31386279727515 H 0.0 **** 0.06
10288 H 80.2896790360256 46.9848614744392 58.6885461130301 H 0.0 **** 0.06
10289 H 79.55995167376844 45.90552193829592 57.47522357053862 H 0.0 **** 0.06
10290 H 78.5204678949649 46.806807886058365 58.60413475447049 H 0.0 **** 0.06
10291 C 18.581047066691568 116.7755018140549 36.28082048923912 C 0.0 **** -0.24
10292 H 19.334129180045466 116.68155179444506 37.06358395665799 H 0.0 **** 0.06
10293 H 17.66308595606243 117.18064894068988 36.70802670873195 H 0.0 **** 0.06
10294 H 18.380812679600126 115.79480292131245 35.850601105421845 H 0.0 **** 0.06
10295 H 18.946923268557214 117.44562739391483 35.50307747504806 H 0.0 **** 0.06
10296 C 88.81566063792803 113.12517010467916 141.07737471963887 C 0.0 **** -0.24
10297 H 89.89962849858765 113.23948179400305 141.0643971857048 H 0.0 **** 0.06
10298 H 88.5622627581595 112.06491986677672 141.04525152738555 H 0.0 **** 0.06
10299 H 88.387942314572 113.62814213370443 140.2095607357654 H 0.0 **** 0.06
10300 H 88.41415106880652 113.56779165176597 141.98884722048618 H 0.0 **** 0.06
10301 C 21.03037445818562 31.041892873183457 65.89936415785417 C 0.0 **** -0.24
10302 H 20.252221663446903 30.29608039307047 65.73902750836436 H 0.0 **** 0.06
10303 H 21.615565306552583 30.77231099610819 66.77964267197333 H 0.0 **** 0.06
10304 H 20.571568532928993 32.018555806439736 66.0520616239728 H 0.0 **** 0.06
10305 H 21.682764433886987 31.07828693156179 65.02711208784976 H 0.0 **** 0.06
10306 C 138.16366251633602 8.68725770418473 57.0664339309605 C 0.0 **** -0.24
10307 H 138.7384391248403 7.839163548489324 56.693930155920725 H 0.0 **** 0.06
10308 H 138.83938827599712 9.414380550437528 57.515879062394276 H 0.0 **** 0.06
10309 H 137.45050640524542 8.3425625599468 57.81453049519621 H 0.0 **** 0.06
10310 H 137.626940823331 9.15270003141515 56.23979606717489 H 0.0 **** 0.06
10311 C 142.09117274502782 48.308339893780555 134.5880865100158 C 0.0 **** -0.24
10312 H 142.09424188555354 47.34386262332312 134.0808439189698 H 0.0 **** 0.06
10313 H 141.15420764838294 48.825207327648826 134.38039836947138 H 0.0 **** 0.06
10314 H 142.9257113793466 48.910137378622665 134.2279227117783 H 0.0 **** 0.06
10315 H 142.19183676449373 48.153780216196196 135.6627883277967 H 0.0 **** 0.06
10316 C 91.3829702360591 25.19755678055276 113.33692744474452 C 0.0 **** -0.24
10317 H 91.30184390101817 25.666049020468343 114.31779565109666 H 0.0 **** 0.06
10318 H 90.98265357972383 25.87141198478203 112.57870077375823 H 0.0 **** 0.06
10319 H 90.816509407936 24.266095465349437 113.33128266117639 H 0.0 **** 0.06
10320 H 92.43021620359872 24.987824686348247 113.12041599902513 H 0.0 **** 0.06
10321 C 82.18863746413112 91.93967347652736 5.473849937296944 C 0.0 **** -0.24
10322 H 83.2184874438626 91.82034027266879 5.136557002634316 H 0.0 **** 0.06
10323 H 82.17925337231807 92.15009112874145 6.543689309629311 H 0.0 **** 0.06
10324 H 81.63391723714808 91.02216675711642 5.27855588394381 H 0.0 **** 0.06
10325 H 81.72502621100946 92.76676040079435 4.936650067778491 H 0.0 **** 0.06
10326 C 109.32444285346573 131.9932428506424 29.28466851056291 C 0.0 **** -0.24
10327 H 109.10182156496582 132.06036054556054 30.350401568032368 H 0.0 **** 0.06
10328 H 110.12850606926337 132.68641582363855 29.037345899179115 H 0.0 **** 0.06
10329 H 108.43303210674127 132.24906824564977 28.710580354136113 H 0.0 **** 0.06
10330 H 109.63278259333147 130.97649552404872 29.042063156561795 H 0.0 **** 0.06
10331 C 144.8263166252117 55.85744231062877 138.18050773380804 C 0.0 **** -0.24
10332 H 143.9577837216076 56.46751645630539 137.9307136886182 H 0.0 **** 0.06
10333 H 145.088287905665 56.012046925401066 139.2280541220876 H 0.0 **** 0.06
10334 H 145.66549027586927 56.14603417849307 137.54849811107465 H 0.0 **** 0.06
10335 H 144.59099166608422 54.80569766851097 138.01591037307054 H 0.0 **** 0.06
10336 C 133.92138104471042 142.3589730158922 12.108183532270147 C 0.0 **** -0.24
10337 H 134.96693814538358 142.65032080627756 12.205649872946651 H 0.0 **** 0.06
10338 H 133.53274796345275 142.06527380269884 13.083600891318014 H 0.0 **** 0.06
10339 H 133.84155694574062 141.52001796655676 11.417238227707202 H 0.0 **** 0.06
10340 H 133.34419621060312 143.2002325528276 11.7245157679167 H 0.0 **** 0.06
10341 C 68.71003673213298 135.45101979647364 79.02046329862824 C 0.0 **** -0.24
10342 H 67.7067104141434 135.2463178374215 78.646289108488 H 0.0 **** 0.06
10343 H 68.72387561645499 136.42759189690165 79.50565745213112 H 0.0 **** 0.06
10344 H 69.415029069913 135.44794651241975 78.18987964709865 H 0.0 **** 0.06
10345 H 68.99228260390133 134.68305827172065 79.7405204160745 H 0.0 **** 0.06
10346 C 103.2177087716833 143.90521719432715 35.371134382781946 C 0.0 **** -0.24
10347 H 102.22677418940634 144.2757619347518 35.10959638180091 H 0.0 **** 0.06
10348 H 103.12023818985801 143.0508665820291 36.0406053617843 H 0.0 **** 0.06
10349 H 103.78197127294573 144.6945624136153 35.86788367158621 H 0.0 **** 0.06
10350 H 103.7410195670742 143.5995819268885 34.46437870950645 H 0.0 **** 0.06
10351 C 28.063862508439456 14.795063741684373 136.2432386290041 C 0.0 **** -0.24
10352 H 27.21556217243156 15.14296308524115 136.83310344768304 H 0.0 **** 0.06
10353 H 27.78922894752688 14.776849506269144 135.18851850067762 H 0.0 **** 0.06
10354 H 28.341067005589366 13.790860701917495 136.5642663970055 H 0.0 **** 0.06
10355 H 28.90753204436146 15.468778591402184 136.38812081868 H 0.0 **** 0.06
10356 C 26.04854611133075 136.1515169361697 117.67031333635546 C 0.0 **** -0.24
10357 H 25.179722316736758 135.5200290483567 117.85802905599846 H 0.0 **** 0.06
10358 H 26.707067081534746 135.66060894809223 116.95297281456911 H 0.0 **** 0.06
10359 H 26.586132901924856 136.31509100225267 118.6050405284756 H 0.0 **** 0.06
10360 H 25.720351241996184 137.10949912712496 117.26707253550623 H 0.0 **** 0.06
10361 C 54.894021178561516 86.39538267566468 56.93114283264305 C 0.0 **** -0.24
10362 H 55.90018519418504 86.76905130706454 56.74099650458999 H 0.0 **** 0.06
10363 H 54.88038721587519 85.31129061590391 56.81724186205507 H 0.0 **** 0.06
10364 H 54.19943257308509 86.84517130434863 56.221447990207224 H 0.0 **** 0.06
10365 H 54.59533645337835 86.65746424480153 57.94641944912482 H 0.0 **** 0.06
10366 C 40.283938981780665 1.550238304386994 129.9097997934663 C 0.0 **** -0.24
10367 H 40.550673513403325 1.223014270142869 128.90475251697458 H 0.0 **** 0.06
10368 H 41.170337315577655 1.5280888339629541 130.5451889421534 H 0.0 **** 0.06
10369 H 39.52656138742347 0.8824194548895434 130.3188988163914 H 0.0 **** 0.06
10370 H 39.890155213322345 2.565637284037166 129.86898144472866 H 0.0 **** 0.06
10371 C 138.76208616649916 89.3646398361011 104.82366411286995 C 0.0 **** -0.24
10372 H 139.48102594720856 89.99976145164419 104.3051507903618 H 0.0 **** 0.06
10373 H 138.01058756624576 89.01431437621449 104.11491811005628 H 0.0 **** 0.06
10374 H 138.27851789376678 89.93548100610352 105.61528770069977 H 0.0 **** 0.06
10375 H 139.28046907042963 88.50847473590865 105.25588905713808 H 0.0 **** 0.06
10376 C 138.532708562246 54.33082753133897 64.72803742599935 C 0.0 **** -0.24
10377 H 138.44707432311768 55.125504348231374 65.46994070877156 H 0.0 **** 0.06
10378 H 139.38921276475537 53.70037894300451 64.96872199949485 H 0.0 **** 0.06
10379 H 138.6698552725079 54.77102424648777 63.73986559359908 H 0.0 **** 0.06
10380 H 137.623871673172 53.7288953621797 64.73467670832346 H 0.0 **** 0.06
10381 C 84.22572104241779 7.19487167180651 41.73307405945161 C 0.0 **** -0.24
10382 H 84.54087543001049 6.722769483508387 42.664556860748746 H 0.0 **** 0.06
10383 H 84.02918982462143 8.252634341482207 41.91140959536398 H 0.0 **** 0.06
10384 H 83.31785415797023 6.713027904022994 41.37040865979003 H 0.0 **** 0.06
10385 H 85.01443183821138 7.091857942445415 40.98909471518505 H 0.0 **** 0.06
10386 C 120.8411037717679 15.333520369898487 50.67800399510256 C 0.0 **** -0.24
10387 H 120.21203288265423 15.471169429671889 49.79850160534693 H 0.0 **** 0.06
10388 H 121.87489262440681 15.180355880127877 50.36488702622471 H 0.0 **** 0.06
10389 H 120.49784213694971 14.463332085784607 51.23780191487795 H 0.0 **** 0.06
10390 H 120.77966853365496 16.220075262839494 51.30969621425206 H 0.0 **** 0.06
10391 C 36.192313108553805 35.08868579617095 3.920592918154057 C 0.0 **** -0.24
10392 H 37.26813540391774 34.960354585736496 3.7987922134593077 H 0.0 **** 0.06
10393 H 35.673728181424536 34.23230532367373 3.4887595168449366 H 0.0 **** 0.06
10394 H 35.87610934206393 36.000172480784215 3.412705995512681 H 0.0 **** 0.06
10395 H 35.95336560895214 35.16232563147577 4.98142379715415 H 0.0 **** 0.06
10396 C 72.19669553868496 94.91577274436003 126.06850718091704 C 0.0 **** -0.24
10397 H 71.91576051023043 93.94978512580667 125.64961781391372 H 0.0 **** 0.06
10398 H 72.91441938255902 94.76613596761393 126.87575080067683 H 0.0 **** 0.06
10399 H 71.30959062153514 95.41444154344856 126.45836250001344 H 0.0 **** 0.06
10400 H 72.6470828224383 95.53174580886821 125.2904696795581 H 0.0 **** 0.06
10401 C 80.59370217756712 76.67564712994823 143.22176444953004 C 0.0 **** -0.24
10402 H 81.08269012176177 75.95064262638479 142.57104703022011 H 0.0 **** 0.06
10403 H 79.73661145438237 77.107366861377 142.70413958734852 H 0.0 **** 0.06
10404 H 81.2990875233735 77.46632625618352 143.47858141869594 H 0.0 **** 0.06
10405 H 80.25781357611649 76.1785172868965 144.1308428773221 H 0.0 **** 0.06
10406 C 105.56107843884297 34.85748777276132 96.63432000529072 C 0.0 **** -0.24
10407 H 106.20664332852317 35.475102553371016 97.26031436500831 H 0.0 **** 0.06
10408 H 105.4123752114595 33.889229447963544 97.11186900281074 H 0.0 **** 0.06
10409 H 106.02868387089211 34.71538993864482 95.66021824201417 H 0.0 **** 0.06
10410 H 104.59863624984467 35.35243891971646 96.50711834266582 H 0.0 **** 0.06
10411 C 0.09228030607960136 135.03049801614029 103.86119401602556 C 0.0 **** -0.24
10412 H -0.5500182913140748 135.30503819994826 103.02478916844146 H 0.0 **** 0.06
10413 H 0.32898254521785475 133.9671384162393 103.8050033846072 H 0.0 **** 0.06
10414 H -0.4235109342805572 135.23816096931313 104.79882262044426 H 0.0 **** 0.06
10415 H 1.0143965708524547 135.6108886475994 103.81710037726081 H 0.0 **** 0.06
10416 C 120.06891294311657 34.67971043482078 45.43602406940553 C 0.0 **** -0.24
10417 H 121.1242890870397 34.952490335818595 45.416550011980206 H 0.0 **** 0.06
10418 H 119.46072564772385 35.57441562650325 45.30597909597836 H 0.0 **** 0.06
10419 H 119.83166704036944 34.21452826276021 46.392695808326664 H 0.0 **** 0.06
10420 H 119.86106161336039 33.977482024068934 44.62808408179035 H 0.0 **** 0.06
10421 C 61.680594139504365 0.34533439987279735 87.59732260607683 C 0.0 **** -0.24
10422 H 61.71083635758477 0.8983850593553484 86.6583858217698 H 0.0 **** 0.06
10423 H 62.38332381463887 -0.4870348879164226 87.5516028347688 H 0.0 **** 0.06
10424 H 60.673117128010645 -0.03778516765694917 87.76025625821438 H 0.0 **** 0.06
10425 H 61.955272325751366 1.0082989500247095 88.41774432318152 H 0.0 **** 0.06
10426 C 93.89820674848752 35.9166878949528 11.79269826153704 C 0.0 **** -0.24
10427 H 92.92112838862053 35.4338415892169 11.784747746780852 H 0.0 **** 0.06
10428 H 93.86944115360306 36.80569491113357 11.163781811789796 H 0.0 **** 0.06
10429 H 94.64777018881459 35.22382135370728 11.410468622068223 H 0.0 **** 0.06
10430 H 94.1539913691734 36.2015632090897 12.81334520748291 H 0.0 **** 0.06
10431 C 75.06326325078138 112.81751390450923 6.281465253909943 C 0.0 **** -0.24
10432 H 75.39548712644543 113.19212921643292 7.249320373525279 H 0.0 **** 0.06
10433 H 74.90818805761398 111.73990689093425 6.342257881414753 H 0.0 **** 0.06
10434 H 75.82056635289976 113.0343469145145 5.528649661122927 H 0.0 **** 0.06
10435 H 74.12730994295092 113.30407096808192 6.004867032421004 H 0.0 **** 0.06
10436 C 128.7958900861759 76.51468773023859 9.852286531081887 C 0.0 **** -0.24
10437 H 129.68848365395417 76.68750058679177 9.250510523868428 H 0.0 **** 0.06
10438 H 128.73453551130422 75.45836558059928 10.114858515888727 H 0.0 **** 0.06
10439 H 127.91288167467829 76.80025001301058 9.280800561784275 H 0.0 **** 0.06
10440 H 128.84957078406802 77.11320384478098 10.76196491504578 H 0.0 **** 0.06
10441 C 50.88106374916529 26.027673632919317 6.406242723213211 C 0.0 **** -0.24
10442 H 51.56788376605016 26.52455034916113 7.0907327870027075 H 0.0 **** 0.06
10443 H 51.14584691629469 26.27981542542568 5.379203627342122 H 0.0 **** 0.06
10444 H 49.86266454185048 26.35800332155563 6.609944054408032 H 0.0 **** 0.06
10445 H 50.9470366118542 24.94870574839436 6.544668746001747 H 0.0 **** 0.06
10446 C 61.26002045453825 29.49922760821059 35.48319773166227 C 0.0 **** -0.24
10447 H 61.089577162809334 29.007556311981602 34.52565227636677 H 0.0 **** 0.06
10448 H 62.33137224822512 29.6113736037953 35.64840513813263 H 0.0 **** 0.06
10449 H 60.82904675118262 28.897735576085694 36.282744379518306 H 0.0 **** 0.06
10450 H 60.78898777971138 30.48286457847516 35.47400603117862 H 0.0 **** 0.06
10451 C 93.14915864942859 19.01214776522211 116.86908535567665 C 0.0 **** -0.24
10452 H 92.10481546302063 19.31329558909846 116.94732962547158 H 0.0 **** 0.06
10453 H 93.54901631038561 18.826118803158607 117.86583004108485 H 0.0 **** 0.06
10454 H 93.72055111972705 19.806074172098818 116.38943824796382 H 0.0 **** 0.06
10455 H 93.21998293579767 18.101421784030848 116.27357545119878 H 0.0 **** 0.06
10456 C 55.47722143448664 137.4329321770203 138.42368287397642 C 0.0 **** -0.24
10457 H 56.28570759259503 138.1620063691391 138.38844399798262 H 0.0 **** 0.06
10458 H 54.5420755818822 137.9383986907065 138.6664662564817 H 0.0 **** 0.06
10459 H 55.69533945250649 136.68518049155375 139.1872494494232 H 0.0 **** 0.06
10460 H 55.38519723858322 136.944419147866 137.45341307483787 H 0.0 **** 0.06
10461 C 1.4147150227726684 74.21166025953133 122.48827649589447 C 0.0 **** -0.24
10462 H 0.7115151701255513 74.40931072884698 121.6793851897894 H 0.0 **** 0.06
10463 H 1.6458628348109414 73.14549689324349 122.51539443547716 H 0.0 **** 0.06
10464 H 0.9713489781301519 74.51203762107795 123.43680315218 H 0.0 **** 0.06
10465 H 2.331173152708118 74.77720059705288 122.31849269503778 H 0.0 **** 0.06
10466 C 14.06567792348769 56.60337441374293 57.44814391011917 C 0.0 **** -0.24
10467 H 13.533912465656499 56.44905374024253 58.38696578805343 H 0.0 **** 0.06
10468 H 13.576897652726792 57.394666961209765 56.879498272653166 H 0.0 **** 0.06
10469 H 14.056861026741863 55.680300937425784 56.868601407687834 H 0.0 **** 0.06
10470 H 15.096654653428786 56.890736534113216 57.658407935448764 H 0.0 **** 0.06
10471 C 92.58119106721307 77.36701307093512 121.48557225402969 C 0.0 **** -0.24
10472 H 92.31024013667293 76.31298291287368 121.42855562857976 H 0.0 **** 0.06
10473 H 91.74918327212804 77.97552925709965 121.13206419178793 H 0.0 **** 0.06
10474 H 93.45662099982148 77.55010230573811 120.86145790626809 H 0.0 **** 0.06
10475 H 92.81026674768303 77.62798896809687 122.51808799129479 H 0.0 **** 0.06
10476 C 92.9905981847071 144.57839959178784 16.573106274100496 C 0.0 **** -0.24
10477 H 92.56361266730136 145.1029340559972 17.427975192020483 H 0.0 **** 0.06
10478 H 93.51672460019665 145.29018813279987 15.936275838539643 H 0.0 **** 0.06
10479 H 92.19182863661476 144.10246418708937 16.003995906508237 H 0.0 **** 0.06
10480 H 93.6886950683772 143.81869853136104 16.92565551270701 H 0.0 **** 0.06
10481 C 65.67850438094706 97.44939567228843 118.75765158923407 C 0.0 **** -0.24
10482 H 66.51826684658337 97.62956620632369 118.08708284373763 H 0.0 **** 0.06
10483 H 65.4720912658423 96.37950613546334 118.80249523772439 H 0.0 **** 0.06
10484 H 64.79865849348155 97.97454151376061 118.38569196394717 H 0.0 **** 0.06
10485 H 65.92496848514313 97.81439330503494 119.75443142711175 H 0.0 **** 0.06
10486 C 143.36950301390226 73.31586685985661 28.128658676622493 C 0.0 **** -0.24
10487 H 142.36905074239053 72.97162518706534 28.38726018482373 H 0.0 **** 0.06
10488 H 144.01932307249496 73.23146338407963 29.00011715121086 H 0.0 **** 0.06
10489 H 143.3237033257879 74.3567766174051 27.808578750678713 H 0.0 **** 0.06
10490 H 143.76734012549696 72.70349206085882 27.31879407020803 H 0.0 **** 0.06
10491 C 115.5232283982396 71.95376177618974 93.60126151368127 C 0.0 **** -0.24
10492 H 116.25316692953551 71.72268218000036 94.37643750250623 H 0.0 **** 0.06
10493 H 115.28844651856811 71.04773573102275 93.04159623855918 H 0.0 **** 0.06
10494 H 115.93675960198108 72.7023039410661 92.92344916270298 H 0.0 **** 0.06
10495 H 114.61500057680804 72.34369807954192 94.06158730246801 H 0.0 **** 0.06
10496 C 57.09136475054237 93.3038735005951 34.40200432931954 C 0.0 **** -0.24
10497 H 56.584005543958966 92.48500738697055 34.91295526651223 H 0.0 **** 0.06
10498 H 58.10257546732859 93.40635422849942 34.79686572369212 H 0.0 **** 0.06
10499 H 56.540931920709056 94.22963617030624 34.566962012564346 H 0.0 **** 0.06
10500 H 57.137008477339506 93.09290402853247 33.333597839410885 H 0.0 **** 0.06
10501 C 6.755508186099192 63.09358762937674 26.581528258214092 C 0.0 **** -0.24
10502 H 7.262277025809624 62.24869113232619 27.04706356040368 H 0.0 **** 0.06
10503 H 7.447339876386785 63.93374369778654 26.50329336088192 H 0.0 **** 0.06
10504 H 5.898576315888061 63.38305123728813 27.18918972162473 H 0.0 **** 0.06
10505 H 6.414704045220812 62.80928186955627 25.58552790286231 H 0.0 **** 0.06
10506 C 36.80580627291181 48.923930652354 62.05991257323021 C 0.0 **** -0.24
10507 H 37.811092227529144 48.54418665415203 62.2361835138006 H 0.0 **** 0.06
10508 H 36.29989672700955 49.06939871718596 63.01435296850647 H 0.0 **** 0.06
10509 H 36.2466968459907 48.206783669198046 61.45845952138367 H 0.0 **** 0.06
10510 H 36.86372549479137 49.87472129372523 61.52950947945375 H 0.0 **** 0.06
10511 C 103.7264860199683 25.692603149115087 14.441978393194695 C 0.0 **** -0.24
10512 H 102.79983901334347 26.08154352473116 14.020584776254843 H 0.0 **** 0.06
10513 H 104.11646457022592 26.39858371288409 15.174222893307764 H 0.0 **** 0.06
10514 H 104.45692964155201 25.553358544637888 13.645433402332067 H 0.0 **** 0.06
10515 H 103.53019687024802 24.73577661427248 14.92707477897575 H 0.0 **** 0.06
10516 C 24.389567713462867 13.356296739009082 16.09777725918474 C 0.0 **** -0.24
10517 H 24.525228484309025 14.065843143926855 16.91513460509111 H 0.0 **** 0.06
10518 H 24.933421984895006 13.705432994012057 15.220082380655413 H 0.0 **** 0.06
10519 H 23.32952208234306 13.274855416201632 15.860829171679427 H 0.0 **** 0.06
10520 H 24.77135864732236 12.379912883036894 16.398330420344905 H 0.0 **** 0.06
10521 C 48.69270929756016 52.61461580246555 49.545985884227804 C 0.0 **** -0.24
10522 H 49.24400574872965 53.4672959174917 49.14859592956711 H 0.0 **** 0.06
10523 H 49.370813729197266 51.97757205926143 50.11531410147896 H 0.0 **** 0.06
10524 H 48.26453544023775 52.04403033087641 48.72191534164128 H 0.0 **** 0.06
10525 H 47.89417948827338 52.96914048868007 50.1965227536995 H 0.0 **** 0.06
10526 C 113.2514677957535 91.61243438423088 96.29716315865687 C 0.0 **** -0.24
10527 H 114.28187501283337 91.37778144055798 96.0305176062119 H 0.0 **** 0.06
10528 H 112.60002032123536 90.7987204400504 95.97795834247626 H 0.0 **** 0.06
10529 H 112.9498159521748 92.53554905482179 95.80352836432814 H 0.0 **** 0.06
10530 H 113.17557435130051 91.73587450066043 97.3774944132399 H 0.0 **** 0.06
10531 C 116.16883333306613 55.70953528450289 85.90180134652833 C 0.0 **** -0.24
10532 H 116.22013900391009 55.86451509433729 86.97911367171572 H 0.0 **** 0.06
10533 H 115.37058640165581 55.00250378162167 85.67404001395374 H 0.0 **** 0.06
10534 H 117.11918810629358 55.3106010863593 85.54688837832856 H 0.0 **** 0.06
10535 H 115.96526122130622 56.65897213482529 85.40792190616605 H 0.0 **** 0.06
10536 C 79.86516805541524 107.40439208489366 49.814038725389935 C 0.0 **** -0.24
10537 H 79.37845898854704 106.45771761085533 49.57992206316375 H 0.0 **** 0.06
10538 H 79.80769475859134 108.06541392816015 48.949446437135464 H 0.0 **** 0.06
10539 H 80.91071176314901 107.22276592620162 50.064023152282815 H 0.0 **** 0.06
10540 H 79.36436734351767 107.87003387428595 50.66268544531417 H 0.0 **** 0.06
10541 C 2.922306573709527 53.93147815457516 144.6361246591076 C 0.0 **** -0.24
10542 H 2.1882194611114514 54.41888514434511 145.27664739362334 H 0.0 **** 0.06
10543 H 2.456057613365452 53.08852038493194 144.12526358327287 H 0.0 **** 0.06
10544 H 3.753916751269003 53.573067537240505 145.24298810977493 H 0.0 **** 0.06
10545 H 3.291936099987417 54.64471239648762 143.89879036266987 H 0.0 **** 0.06
10546 C 65.99017063715137 145.25935168260426 100.25461519273682 C 0.0 **** -0.24
10547 H 67.06939912395218 145.21056222756408 100.11315029897307 H 0.0 **** 0.06
10548 H 65.52001438249404 144.40693270069312 99.76351346764656 H 0.0 **** 0.06
10549 H 65.60819359498362 146.18418788344403 99.82276635265876 H 0.0 **** 0.06
10550 H 65.76201428421372 145.234460205793 101.32053968487836 H 0.0 **** 0.06
10551 C 132.70954386472354 63.217016366292455 68.35900213042524 C 0.0 **** -0.24
10552 H 132.39375636366506 62.17588089952443 68.29271420232494 H 0.0 **** 0.06
10553 H 133.34538231242433 63.45836223980098 67.50694194855994 H 0.0 **** 0.06
10554 H 133.26548221453268 63.3698895996515 69.28357726858327 H 0.0 **** 0.06
10555 H 131.8315680517334 63.86310740084217 68.35216452175709 H 0.0 **** 0.06
10556 C 33.35455049925508 0.9708121718247753 122.26267880230961 C 0.0 **** -0.24
10557 H 32.419415877437984 1.4252730048108901 121.93406729024758 H 0.0 **** 0.06
10558 H 33.48930485907988 0.013668291028636759 121.75892712930874 H 0.0 **** 0.06
10559 H 33.32249954977374 0.8140349737400925 123.34040163269157 H 0.0 **** 0.06
10560 H 34.185749306612536 1.631586698090814 122.01565960605961 H 0.0 **** 0.06
10561 C 13.728084265055088 32.51666250154956 88.22030377596357 C 0.0 **** -0.24
10562 H 14.684112490761606 33.03963395406123 88.21751783142625 H 0.0 **** 0.06
10563 H 13.6757118781739 31.85983938280136 89.08969523159607 H 0.0 **** 0.06
10564 H 13.635178558257792 31.92398721985856 87.3105860123477 H 0.0 **** 0.06
10565 H 12.916444019247166 33.24289857796151 88.26447582968476 H 0.0 **** 0.06
10566 C 68.00309311759561 84.35774366397699 98.34235595392107 C 0.0 **** -0.24
10567 H 68.91709619719138 83.90817899035343 98.72840621374452 H 0.0 **** 0.06
10568 H 67.14834686046298 83.98791229972684 98.90870522339783 H 0.0 **** 0.06
10569 H 67.88415110332495 84.09391902942255 97.29096910680876 H 0.0 **** 0.06
10570 H 68.06131345648329 85.4426409888101 98.43959873967805 H 0.0 **** 0.06
10571 C 50.326797544137506 68.60680006418379 41.93250367674659 C 0.0 **** -0.24
10572 H 50.94910386703252 68.48468889393018 41.046577860077285 H 0.0 **** 0.06
10573 H 50.88641261017109 69.14397342158084 42.69807839318463 H 0.0 **** 0.06
10574 H 50.0396838667252 67.62620878771827 42.313235102043066 H 0.0 **** 0.06
10575 H 49.43198983262114 69.17232915350588 41.67212335168118 H 0.0 **** 0.06
10576 C 44.54864346057528 125.20788169266172 96.87559770784026 C 0.0 **** -0.24
10577 H 43.539405712959706 125.27962128868623 97.28192580984758 H 0.0 **** 0.06
10578 H 44.52327434135327 124.66344896029804 95.93172149899915 H 0.0 **** 0.06
10579 H 45.187186527702835 124.67934925273394 97.58370583884877 H 0.0 **** 0.06
10580 H 44.94428905611946 126.20978231364737 96.70735494109522 H 0.0 **** 0.06
10581 C 62.68206801436813 136.13014976625777 94.96235598917687 C 0.0 **** -0.24
10582 H 63.01348901793267 136.82862359717868 94.1942587923059 H 0.0 **** 0.06
10583 H 63.339481696721165 136.20381932734114 95.82912295757427 H 0.0 **** 0.06
10584 H 62.714256553756144 135.11482420022082 94.5672626005342 H 0.0 **** 0.06
10585 H 61.66172702907912 136.37299303681942 95.25813173541161 H 0.0 **** 0.06
10586 C 30.429986301361993 40.69326675385983 120.48410985564239 C 0.0 **** -0.24
10587 H 31.250970850053676 41.41102994494449 120.47653891185512 H 0.0 **** 0.06
10588 H 30.83324612522702 39.681839931166934 120.53937483045429 H 0.0 **** 0.06
10589 H 29.84453230066825 40.80237114023001 119.57110561236244 H 0.0 **** 0.06
10590 H 29.793634858026763 40.879508236681545 121.34831456295983 H 0.0 **** 0.06
10591 C 112.95287246942448 128.92558310018393 99.99252447075858 C 0.0 **** -0.24
10592 H 112.5057269637941 128.498804447468 99.09379990321834 H 0.0 **** 0.06
10593 H 113.98683969019723 129.20227274202313 99.78801164156172 H 0.0 **** 0.06
10594 H 112.92409352576661 128.18977109761357 100.79662234856073 H 0.0 **** 0.06
10595 H 112.3918683619228 129.81207682881467 100.29072611202265 H 0.0 **** 0.06
10596 C 135.11547810220736 131.13755746246326 125.48408281979997 C 0.0 **** -0.24
10597 H 136.18104274247392 130.9303010003041 125.58162585542344 H 0.0 **** 0.06
10598 H 134.58962063234858 130.21999192369935 125.21715891731628 H 0.0 **** 0.06
10599 H 134.9615371833743 131.88487384220133 124.70471295651825 H 0.0 **** 0.06
10600 H 134.7299272411998 131.51520220802752 126.4306121833081 H 0.0 **** 0.06
10601 C 118.14046083626624 54.51292750285789 53.37445404085416 C 0.0 **** -0.24
10602 H 117.5877082974173 54.07458909255861 54.20608197253823 H 0.0 **** 0.06
10603 H 119.160884572969 54.73261037709341 53.69295341902327 H 0.0 **** 0.06
10604 H 117.65112056902825 55.434683465429316 53.05982259962484 H 0.0 **** 0.06
10605 H 118.1629102334216 53.809697895327545 52.54233084550495 H 0.0 **** 0.06
10606 C 71.28489213556462 125.6281303997482 106.91752701400469 C 0.0 **** -0.24
10607 H 71.56162641699186 126.20479639865974 107.80035507056613 H 0.0 **** 0.06
10608 H 70.37200874813776 126.03968218080533 106.48670691333888 H 0.0 **** 0.06
10609 H 71.11682745304238 124.58886666998083 107.20090499731015 H 0.0 **** 0.06
10610 H 72.0889067396483 125.6790120306135 106.18310718480262 H 0.0 **** 0.06
10611 C 45.61564811474102 80.10837656868765 92.8346918187795 C 0.0 **** -0.24
10612 H 45.422507847399146 80.10048479879323 91.76172980835031 H 0.0 **** 0.06
10613 H 45.584046368693706 79.08763392939348 93.21578851573486 H 0.0 **** 0.06
10614 H 44.85705365362945 80.70887292344865 93.33621793527601 H 0.0 **** 0.06
10615 H 46.599992028640955 80.53613423043222 93.02283087272599 H 0.0 **** 0.06
10616 C 100.09321515562355 53.98504497480491 21.167324405080876 C 0.0 **** -0.24
10617 H 100.65708754598005 53.32401865435136 20.509590414679707 H 0.0 **** 0.06
10618 H 100.11382637668189 54.99930187434812 20.766426547097495 H 0.0 **** 0.06
10619 H 100.54146133081659 53.97835235419909 22.16056780196223 H 0.0 **** 0.06
10620 H 99.06138660877679 53.64060665807898 21.231829944655118 H 0.0 **** 0.06
10621 C 47.999617631337614 52.66435907279329 91.28077651166166 C 0.0 **** -0.24
10622 H 48.71038947556953 52.73308618271673 90.4565405515823 H 0.0 **** 0.06
10623 H 47.875917228461674 51.619035801325595 91.5658070622847 H 0.0 **** 0.06
10624 H 47.0394179584527 53.07301276832925 90.96768292505288 H 0.0 **** 0.06
10625 H 48.37633423671349 53.23167599789063 92.13221942171936 H 0.0 **** 0.06
10626 C 95.0076709494877 30.00330492819569 53.2085795497178 C 0.0 **** -0.24
10627 H 95.66356550545657 30.79912427135031 53.56368498122487 H 0.0 **** 0.06
10628 H 95.60630670213749 29.22154133542955 52.7401760347293 H 0.0 **** 0.06
10629 H 94.30565088892183 30.408868299537232 52.480144188573036 H 0.0 **** 0.06
10630 H 94.45644959720653 29.584139833427315 54.05067726700632 H 0.0 **** 0.06
10631 C 14.95883354888528 79.14399744528089 73.52837727662177 C 0.0 **** -0.24
10632 H 14.60521714491145 79.6143533894788 74.44553516535768 H 0.0 **** 0.06
10633 H 15.37138256642345 79.90492177654656 72.86558139246966 H 0.0 **** 0.06
10634 H 14.127466198619317 78.64245207833179 73.03285888440857 H 0.0 **** 0.06
10635 H 15.732661954878523 78.41434633243912 73.7693083831928 H 0.0 **** 0.06
10636 C 62.44693970664471 93.97267220965917 9.968760085496626 C 0.0 **** -0.24
10637 H 61.53485312363678 94.55068874978137 10.119152451008006 H 0.0 **** 0.06
10638 H 63.18046782882766 94.58417566693866 9.443938322322794 H 0.0 **** 0.06
10639 H 62.22078264691676 93.08655590783533 9.375616946562928 H 0.0 **** 0.06
10640 H 62.84906371020527 93.67091810596864 10.935082275426737 H 0.0 **** 0.06
10641 C 66.81624497499088 124.37006017771725 144.47423241412852 C 0.0 **** -0.24
10642 H 67.3046308978666 123.56818968681907 145.02774464835426 H 0.0 **** 0.06
10643 H 67.42757743422135 124.64278644109007 143.61394007388665 H 0.0 **** 0.06
10644 H 66.69387201384643 125.23634095257452 145.12372478285153 H 0.0 **** 0.06
10645 H 65.83821464975394 124.03171660352942 144.13179232722288 H 0.0 **** 0.06
10646 C 99.38787921839923 27.84276111497875 16.909764127643996 C 0.0 **** -0.24
10647 H 100.04093591944365 27.917573589626038 17.77914662499461 H 0.0 **** 0.06
10648 H 99.45685843307558 28.75893125927307 16.324328412265572 H 0.0 **** 0.06
10649 H 98.35940076726172 27.698167397785674 17.24016633329171 H 0.0 **** 0.06
10650 H 99.69488936473192 26.995453153724 16.29737303835668 H 0.0 **** 0.06
10651 C 110.41489982646922 84.32931079512102 120.9507442212172 C 0.0 **** -0.24
10652 H 111.43646346651676 83.95218786622857 120.99385922440965 H 0.0 **** 0.06
10653 H 110.27428421097093 84.89164934929278 120.02763832455813 H 0.0 **** 0.06
10654 H 110.23203453114971 84.97965187144555 121.80570891737707 H 0.0 **** 0.06
10655 H 109.71775951553556 83.49090589889059 120.97577573490886 H 0.0 **** 0.06
10656 C 56.94289042812572 136.0517151467042 43.29174760366129 C 0.0 **** -0.24
10657 H 55.952520029449076 136.3565681169138 42.952327400200375 H 0.0 **** 0.06
10658 H 57.70187510701422 136.5313138181168 42.673456184398276 H 0.0 **** 0.06
10659 H 57.03802617846327 134.96865082499292 43.208574293381844 H 0.0 **** 0.06
10660 H 57.078988860008366 136.34946651244982 44.33083382915754 H 0.0 **** 0.06
10661 C 130.43887226373272 132.68223396588277 105.6201740127075 C 0.0 **** -0.24
10662 H 129.60946870301643 133.37877962576215 105.73835069277412 H 0.0 **** 0.06
10663 H 130.82633552275647 132.40885243837747 106.6022191802527 H 0.0 **** 0.06
10664 H 131.2291507149683 133.15490653922103 105.03639106232282 H 0.0 **** 0.06
10665 H 130.09136145159215 131.78695566037123 105.10379631777026 H 0.0 **** 0.06
10666 C 98.12993966646995 9.209047390779915 105.40070258930224 C 0.0 **** -0.24
10667 H 99.12734160234479 8.977735482547303 105.02763148422626 H 0.0 **** 0.06
10668 H 97.83906336611919 10.205654173931691 105.06554309856149 H 0.0 **** 0.06
10669 H 98.13293236738556 9.178454212430836 106.49032546115698 H 0.0 **** 0.06
10670 H 97.41986082247908 8.475796068052091 105.01770330815728 H 0.0 **** 0.06
10671 C 8.000639177667608 74.59104490546014 144.92354165018133 C 0.0 **** -0.24
10672 H 9.042176632870337 74.26837196933388 144.9078302358789 H 0.0 **** 0.06
10673 H 7.472694631185959 74.0769207427117 145.72609554593393 H 0.0 **** 0.06
10674 H 7.53218132879789 74.35319403694339 143.9687547186747 H 0.0 **** 0.06
10675 H 7.9573170034794884 75.66748708980487 145.08990666228874 H 0.0 **** 0.06
10676 C 139.75708211845094 57.57133847799017 98.3644454334425 C 0.0 **** -0.24
10677 H 140.2134511869558 56.60833491016351 98.59348756575459 H 0.0 **** 0.06
10678 H 140.47786344742423 58.19776994546842 97.83790119377271 H 0.0 **** 0.06
10679 H 139.45866913273008 58.061212509526655 99.29019914249047 H 0.0 **** 0.06
10680 H 138.88115530291228 57.41807021705361 97.73514511427484 H 0.0 **** 0.06
10681 C 91.70454407157351 43.096876601086166 142.02746198853478 C 0.0 **** -0.24
10682 H 92.28244535406012 42.215776733344185 141.74639423911864 H 0.0 **** 0.06
10683 H 91.87351011388267 43.889634109468204 141.29825150130654 H 0.0 **** 0.06
10684 H 92.01822731670038 43.43801265338776 143.01439964775278 H 0.0 **** 0.06
10685 H 90.6443141221674 42.84363019151321 142.04997052400432 H 0.0 **** 0.06
10686 C 26.65038955164787 52.677663031531054 93.2632006519741 C 0.0 **** -0.24
10687 H 27.49666050034991 52.54251623494248 92.58898202213561 H 0.0 **** 0.06
10688 H 26.92457448823616 52.34191180439126 94.26230201990967 H 0.0 **** 0.06
10689 H 25.80263283993441 52.09428209079073 92.90310600060428 H 0.0 **** 0.06
10690 H 26.377388554631636 53.73275383404521 93.294772450805 H 0.0 **** 0.06
10691 C 100.32258041121459 84.69343480563091 139.9082230594537 C 0.0 **** -0.24
10692 H 100.9171988339957 84.05028539939516 140.55810361194676 H 0.0 **** 0.06
10693 H 100.64836680415385 85.72694631838507 140.02411118909245 H 0.0 **** 0.06
10694 H 99.27053575846992 84.61038734139342 140.1795881828035 H 0.0 **** 0.06
10695 H 100.45548146458557 84.38403129097324 138.8713042135331 H 0.0 **** 0.06
10696 C 121.06881632054333 3.2768874716103937 6.346057263889207 C 0.0 **** -0.24
10697 H 122.1349150596345 3.273929327381751 6.116767774313189 H 0.0 **** 0.06
10698 H 120.50864872952567 3.574334178254759 5.459891027169249 H 0.0 **** 0.06
10699 H 120.87311477260258 3.983050792175277 7.153299598781189 H 0.0 **** 0.06
10700 H 120.76100658585736 2.2782388202708432 6.653907680043602 H 0.0 **** 0.06
10701 C 10.540882022929395 94.29355802425638 73.26736015911638 C 0.0 **** -0.24
10702 H 10.713048886722163 93.22016084443868 73.33590133442999 H 0.0 **** 0.06
10703 H 10.46965420551959 94.71532478746204 74.27052382678454 H 0.0 **** 0.06
10704 H 9.611475933777228 94.47862309303292 72.72872007381909 H 0.0 **** 0.06
10705 H 11.369006091626431 94.76104001363544 72.73409002190789 H 0.0 **** 0.06
10706 C 112.28216099246703 10.242875468247917 118.95833846559334 C 0.0 **** -0.24
10707 H 112.2193049237315 9.155400866615082 118.90837804973272 H 0.0 **** 0.06
10708 H 111.35491131771818 10.678104644809252 118.58552147882254 H 0.0 **** 0.06
10709 H 113.11727347123463 10.585665538477201 118.34657130488576 H 0.0 **** 0.06
10710 H 112.43894149619217 10.549806048409721 119.99222597006029 H 0.0 **** 0.06
10711 C 94.86198723408697 115.28860695769644 119.29404921270687 C 0.0 **** -0.24
10712 H 94.80720580899231 114.28252975232213 119.70979498340681 H 0.0 **** 0.06
10713 H 94.38382204133515 115.30232972556668 118.31367443137809 H 0.0 **** 0.06
10714 H 95.90627033156042 115.58185368372502 119.19271309329604 H 0.0 **** 0.06
10715 H 94.35138921776695 115.984026913948 119.95832440903617 H 0.0 **** 0.06
10716 C 9.442559054556 137.35117102771844 26.695816211069925 C 0.0 **** -0.24
10717 H 10.213042116565262 136.6751138124077 26.32318576078216 H 0.0 **** 0.06
10718 H 8.738130492886974 137.57495985323112 25.89514347651602 H 0.0 **** 0.06
10719 H 9.907391144601824 138.2745205568757 27.041588789277277 H 0.0 **** 0.06
10720 H 8.914243777158692 136.87742614020252 27.523888488102372 H 0.0 **** 0.06
10721 C 2.572340306152313 34.02205627014319 2.6441830518738705 C 0.0 **** -0.24
10722 H 2.75391538679483 34.39534291278155 1.636204639896679 H 0.0 **** 0.06
10723 H 3.3549410107615927 33.31377807579527 2.9159679448026345 H 0.0 **** 0.06
10724 H 1.6032175957138577 33.52466587573733 2.6780186588575887 H 0.0 **** 0.06
10725 H 2.5767304369191777 34.856600288629465 3.3464158981661782 H 0.0 **** 0.06
10726 C 8.402280646291132 3.5334441282076625 132.39760108279188 C 0.0 **** -0.24
10727 H 8.772823434743742 3.831932578240611 133.37776818122424 H 0.0 **** 0.06
10728 H 7.420518517368521 3.072541110524611 132.50454691245972 H 0.0 **** 0.06
10729 H 9.093498264910238 2.818204025373092 131.95065171248507 H 0.0 **** 0.06
10730 H 8.324139397287325 4.411405307296775 131.75586980138712 H 0.0 **** 0.06
10731 C 26.3792131352657 69.91705350285203 108.89314579933828 C 0.0 **** -0.24
10732 H 27.238244162395375 69.26629288395203 108.73247791213056 H 0.0 **** 0.06
10733 H 26.03772939076606 70.31194812300583 107.93627956545735 H 0.0 **** 0.06
10734 H 26.665620959375644 70.74117291837521 109.54612636651457 H 0.0 **** 0.06
10735 H 25.574745264904635 69.34727400399235 109.35954554095473 H 0.0 **** 0.06
10736 C 72.09924701256067 57.908530059365205 47.90715175876434 C 0.0 **** -0.24
10737 H 73.05228103199815 58.291493479532505 48.270566157340994 H 0.0 **** 0.06
10738 H 71.8870721932418 58.333167765898025 46.92599858211227 H 0.0 **** 0.06
10739 H 71.30730177754283 58.187469414343326 48.60251748667466 H 0.0 **** 0.06
10740 H 72.14911854641713 56.82252832299551 47.83000939955443 H 0.0 **** 0.06
10741 C 113.26896847521637 95.67853675095547 22.726784701911434 C 0.0 **** -0.24
10742 H 114.06341798563916 96.34894967750508 22.398019732074076 H 0.0 **** 0.06
10743 H 112.95223221076883 95.95708347387006 23.732097478375188 H 0.0 **** 0.06
10744 H 113.63732473281057 94.65261312313933 22.732102553783463 H 0.0 **** 0.06
10745 H 112.42227657570264 95.75734686372343 22.04382148730187 H 0.0 **** 0.06
10746 C 88.45147072794938 84.8913292461443 54.60275705955674 C 0.0 **** -0.24
10747 H 88.26876552020632 85.16014166267453 53.562516427558265 H 0.0 **** 0.06
10748 H 89.31288763958774 85.44616554107475 54.9756196640453 H 0.0 **** 0.06
10749 H 88.65162040489415 83.82144881516021 54.67094005792106 H 0.0 **** 0.06
10750 H 87.57413697201143 85.13550287146771 55.20075586134962 H 0.0 **** 0.06
10751 C 105.94822292040661 82.08920901690529 118.95504483350459 C 0.0 **** -0.24
10752 H 105.77753918069706 82.74769139575709 118.10353153281125 H 0.0 **** 0.06
10753 H 105.47675191396715 82.51208123025086 119.84209222312046 H 0.0 **** 0.06
10754 H 107.02012471391808 81.98734817933818 119.12518836056944 H 0.0 **** 0.06
10755 H 105.51907596133142 81.10858183888249 118.74753542498809 H 0.0 **** 0.06
10756 C 118.26311648757776 57.92218391751524 55.12606339523228 C 0.0 **** -0.24
10757 H 117.42618109711408 58.354537655439486 54.577791301163245 H 0.0 **** 0.06
10758 H 118.22922793111765 56.83595601889792 55.04327809894836 H 0.0 **** 0.06
10759 H 118.19705343043667 58.20930166530022 56.17468911215322 H 0.0 **** 0.06
10760 H 119.2005607712694 58.28915275639275 54.70686889349825 H 0.0 **** 0.06
10761 C 129.6914446277783 43.78785596402665 92.0981615171201 C 0.0 **** -0.24
10762 H 129.23892507476754 43.233435443859705 91.27586361044456 H 0.0 **** 0.06
10763 H 130.59810411335343 44.28116691065631 91.74776347724242 H 0.0 **** 0.06
10764 H 129.9404104410269 43.10083663156105 92.90656323065883 H 0.0 **** 0.06
10765 H 128.98746013114862 44.536360067708344 92.46275082196635 H 0.0 **** 0.06
10766 C 106.59345567046687 36.955833032814695 22.04004933534202 C 0.0 **** -0.24
10767 H 106.39436290543823 37.13471301121814 23.096835470329495 H 0.0 **** 0.06
10768 H 106.08607676557942 37.71401573485866 21.44206889237205 H 0.0 **** 0.06
10769 H 106.22460364022841 35.96792964755113 21.763817572832238 H 0.0 **** 0.06
10770 H 107.6664139853831 37.007330505488 21.859468906643826 H 0.0 **** 0.06
10771 C 112.9035327860695 132.33405906643503 104.6897397392855 C 0.0 **** -0.24
10772 H 112.6518663744934 131.53456048878564 103.99291699441926 H 0.0 **** 0.06
10773 H 113.55889041885492 131.9444110140342 105.46913289689256 H 0.0 **** 0.06
10774 H 111.98997379175633 132.72071609897918 105.14294196782546 H 0.0 **** 0.06
10775 H 113.41129563712049 133.13603027107817 104.15451554162225 H 0.0 **** 0.06
10776 C 114.71147692286355 49.680138597405715 109.47664924384564 C 0.0 **** -0.24
10777 H 115.56493968170598 49.83617006636911 108.81593111302801 H 0.0 **** 0.06
10778 H 114.8863386783339 48.79789234195866 110.09355999047445 H 0.0 **** 0.06
10779 H 113.81150078836434 49.53271122257391 108.8783031123075 H 0.0 **** 0.06
10780 H 114.58334057007708 50.5522246739302 110.11624658316988 H 0.0 **** 0.06
10781 C 62.523733836694106 46.34745130830524 44.27165756321277 C 0.0 **** -0.24
10782 H 63.28203048774364 47.090450367899166 44.520807173013665 H 0.0 **** 0.06
10783 H 62.78584643663302 45.8619506105899 43.33120714610983 H 0.0 **** 0.06
10784 H 61.55455707575851 46.83686099719799 44.17124096032707 H 0.0 **** 0.06
10785 H 62.47357245936114 45.60071522400878 45.064282294973665 H 0.0 **** 0.06
10786 C 49.04560887796484 3.5446990784754213 124.5308560353115 C 0.0 **** -0.24
10787 H 50.086749414509285 3.3018498094408457 124.74080713730055 H 0.0 **** 0.06
10788 H 48.65979016560385 2.8633670075139754 123.77271395388894 H 0.0 **** 0.06
10789 H 48.97770633442627 4.570416526655862 124.16691661225468 H 0.0 **** 0.06
10790 H 48.457940667495194 3.4439758438631394 125.44351304408772 H 0.0 **** 0.06
10791 C 107.60993580844074 31.152709711552923 115.11491955568569 C 0.0 **** -0.24
10792 H 108.43595402749536 31.845603235494025 114.95853122926825 H 0.0 **** 0.06
10793 H 106.8607931136692 31.29927994838645 114.33648760036708 H 0.0 **** 0.06
10794 H 107.16123066161576 31.336389583411048 116.09045440023336 H 0.0 **** 0.06
10795 H 107.98183725159716 30.128819512902624 115.07235090126112 H 0.0 **** 0.06
10796 C 77.68600257527461 88.9373345608535 52.076258927463584 C 0.0 **** -0.24
10797 H 77.6885991412426 89.37223423540733 51.07677834861448 H 0.0 **** 0.06
10798 H 76.98101081935751 88.10607022479931 52.10801053032888 H 0.0 **** 0.06
10799 H 77.39021440697617 89.69484258987978 52.80134981597658 H 0.0 **** 0.06
10800 H 78.68625237648308 88.57560769503648 52.31636920486734 H 0.0 **** 0.06
10801 C 5.355532220170062 4.45045009736549 45.39305355881996 C 0.0 **** -0.24
10802 H 4.380955770919968 4.714256823104336 44.98251532049093 H 0.0 **** 0.06
10803 H 5.512671160933394 3.376137505273846 45.294459825639706 H 0.0 **** 0.06
10804 H 5.394065871665873 4.728361226452478 46.446802344011076 H 0.0 **** 0.06
10805 H 6.135849525402932 4.983091746962316 44.84844386305403 H 0.0 **** 0.06
10806 C 50.08569717195144 75.6472815690844 116.55966924065744 C 0.0 **** -0.24
10807 H 50.33425106026179 74.9194410600135 115.78711563988138 H 0.0 **** 0.06
10808 H 49.00963927447896 75.64179741573926 116.73175119013241 H 0.0 **** 0.06
10809 H 50.39711702046458 76.64056348227943 116.23544456243953 H 0.0 **** 0.06
10810 H 50.602506600893406 75.38825331446228 117.48358388007965 H 0.0 **** 0.06
10811 C 131.89326797988767 84.35919701033401 84.2806432832963 C 0.0 **** -0.24
10812 H 130.88720211875426 84.1411207757589 83.92219643912415 H 0.0 **** 0.06
10813 H 132.47858906871147 83.44039907364044 84.30382597295224 H 0.0 **** 0.06
10814 H 131.83735443458835 84.78130776313884 85.28451784040955 H 0.0 **** 0.06
10815 H 132.36980577830326 85.07694139034382 83.61234869159924 H 0.0 **** 0.06
10816 C 1.7963484692098461 39.83312449700995 56.32762446987766 C 0.0 **** -0.24
10817 H 1.5094532327360355 38.850426886760474 55.95294802425131 H 0.0 **** 0.06
10818 H 1.7968736179679752 39.819769601767234 57.41855359847685 H 0.0 **** 0.06
10819 H 1.0841702635602246 40.57814328766173 55.97365402324539 H 0.0 **** 0.06
10820 H 2.79427159089704 40.082463347732165 55.966996578750866 H 0.0 **** 0.06
10821 C 40.25425200927728 99.13385809656111 15.347642198380385 C 0.0 **** -0.24
10822 H 40.881953869653216 98.35616471114602 14.911862097635755 H 0.0 **** 0.06
10823 H 40.04584500466105 98.89027155553481 16.38958846750952 H 0.0 **** 0.06
10824 H 39.31708126327361 99.19666757736806 14.793849011229653 H 0.0 **** 0.06
10825 H 40.77279724487383 100.09024563354743 15.294167522789856 H 0.0 **** 0.06
10826 C 95.15520556735163 25.37903626747439 25.86691856325922 C 0.0 **** -0.24
10827 H 96.01344115904834 25.616339063073156 25.239578244119315 H 0.0 **** 0.06
10828 H 95.48617914378482 24.815003184800787 26.739017798164213 H 0.0 **** 0.06
10829 H 94.44272100076398 24.782606912813947 25.296737294092793 H 0.0 **** 0.06
10830 H 94.67697681555978 26.30303583314233 26.192161498545516 H 0.0 **** 0.06
10831 C 85.87842325992193 45.81300586482422 52.47827144953288 C 0.0 **** -0.24
10832 H 86.51662198571381 44.93091288088621 52.52376015391107 H 0.0 **** 0.06
10833 H 86.45119822103084 46.69256083689807 52.771809829567616 H 0.0 **** 0.06
10834 H 85.03408045211609 45.68604903782189 53.1552412045973 H 0.0 **** 0.06
10835 H 85.51036322526704 45.94183280878504 51.459722782491184 H 0.0 **** 0.06
10836 C 141.3046535015149 40.10227429267546 15.201806134527317 C 0.0 **** -0.24
10837 H 140.29646761488596 40.15101167736495 14.790670183045108 H 0.0 **** 0.06
10838 H 141.78188415995544 41.07845461764285 15.111336242333891 H 0.0 **** 0.06
10839 H 141.88512624350977 39.3616573696915 14.65150178772194 H 0.0 **** 0.06
10840 H 141.25456328573205 39.81732609271387 16.252596969906392 H 0.0 **** 0.06
10841 C 66.82561146257683 55.09665401282933 142.5988852523561 C 0.0 **** -0.24
10842 H 67.37872947610126 55.9996093250885 142.34055589046724 H 0.0 **** 0.06
10843 H 66.51156681180638 55.148435534067914 143.64108173122722 H 0.0 **** 0.06
10844 H 67.46445724833788 54.225039208974806 142.45399348612412 H 0.0 **** 0.06
10845 H 65.94710937788679 55.01445486948069 141.95795831642644 H 0.0 **** 0.06
10846 C 84.95974016949151 91.50255380901886 88.18359058149497 C 0.0 **** -0.24
10847 H 84.31919780410743 92.20378845895314 88.7184675215305 H 0.0 **** 0.06
10848 H 84.5872962465603 91.37327509468916 87.16642072335287 H 0.0 **** 0.06
10849 H 84.95525829514662 90.54134961716028 88.6974780272601 H 0.0 **** 0.06
10850 H 85.9775355626117 91.89301935914929 88.15135480255304 H 0.0 **** 0.06
10851 C 2.052525475882476 58.49846192734036 56.47327541336355 C 0.0 **** -0.24
10852 H 0.9793308973848873 58.51127386382065 56.28212583180999 H 0.0 **** 0.06
10853 H 2.5706728877809084 59.02460465983853 55.671056606547424 H 0.0 **** 0.06
10854 H 2.400534485894344 57.46618121203704 56.51652088967893 H 0.0 **** 0.06
10855 H 2.257990046117996 58.991349415144725 57.42397419299223 H 0.0 **** 0.06
10856 C 65.86050879424064 88.09627420008087 44.15205838514429 C 0.0 **** -0.24
10857 H 65.10065026670357 88.87707108510466 44.173531906893245 H 0.0 **** 0.06
10858 H 65.55779246735253 87.31291978615127 43.45779795269438 H 0.0 **** 0.06
10859 H 65.97468312495835 87.6732201322925 45.15037416587481 H 0.0 **** 0.06
10860 H 66.8104867316757 88.52261260913582 43.82825687489661 H 0.0 **** 0.06
10861 C 39.37269717911183 18.66251097677366 68.80930038988197 C 0.0 **** -0.24
10862 H 40.102581352903016 17.98540921148907 69.25114664763424 H 0.0 **** 0.06
10863 H 38.42967351135652 18.134837393935072 68.66445607649507 H 0.0 **** 0.06
10864 H 39.74193958919464 19.017534420960146 67.84654582902687 H 0.0 **** 0.06
10865 H 39.2150476138001 19.512167264255083 69.47427914280917 H 0.0 **** 0.06
10866 C 17.353941725838297 139.94172895235286 49.081092999644255 C 0.0 **** -0.24
10867 H 16.608009303253482 139.6166022626842 48.355477139461044 H 0.0 **** 0.06
10868 H 16.93815009510081 139.8682672058059 50.08594850376514 H 0.0 **** 0.06
10869 H 17.6308174030832 140.97619036926775 48.87719267270464 H 0.0 **** 0.06
10870 H 18.235845505471104 139.3065047776179 49.00377657099935 H 0.0 **** 0.06
10871 C 94.57806160589986 27.38218508626216 119.75798861230666 C 0.0 **** -0.24
10872 H 95.10158422636255 26.499401301498217 119.38869628358853 H 0.0 **** 0.06
10873 H 94.91626338784685 28.260592558421173 119.20699330530849 H 0.0 **** 0.06
10874 H 94.79211429438564 27.513415104310496 120.8193184784096 H 0.0 **** 0.06
10875 H 93.50585763411038 27.25346392376617 119.6160825725618 H 0.0 **** 0.06
10876 C 26.540773662838262 86.81662629779503 53.975038002231486 C 0.0 **** -0.24
10877 H 27.610211747100436 86.60907573589367 53.94693424571214 H 0.0 **** 0.06
10878 H 26.23856271278197 87.29282975123029 53.041678607553465 H 0.0 **** 0.06
10879 H 26.322068199371472 87.48111154812408 54.810834724641694 H 0.0 **** 0.06
10880 H 25.99304264791664 85.8831251602574 54.10119752451905 H 0.0 **** 0.06
10881 C 107.51502383143527 63.749455765630955 108.11058603603455 C 0.0 **** -0.24
10882 H 106.93734217551703 62.856050816975824 107.87238145672983 H 0.0 **** 0.06
10883 H 106.96876276927738 64.35173221305635 108.83709816025704 H 0.0 **** 0.06
10884 H 107.67439651167909 64.33149155173098 107.20243372281011 H 0.0 **** 0.06
10885 H 108.47834691727651 63.45862249233568 108.52923090265195 H 0.0 **** 0.06
10886 C 127.56032100078072 55.461671683409804 102.26638889155178 C 0.0 **** -0.24
10887 H 128.34389208372164 55.711616829047045 101.55046101936475 H 0.0 **** 0.06
10888 H 127.37537949008674 56.317516117072216 102.91547889651706 H 0.0 **** 0.06
10889 H 127.87889003333702 54.61054815927332 102.86850053331828 H 0.0 **** 0.06
10890 H 126.6461792309349 55.20692180975067 101.7303094053198 H 0.0 **** 0.06
10891 C 17.663854466972083 25.875514053421426 15.930731395510925 C 0.0 **** -0.24
10892 H 18.14361304516973 26.63474790099633 16.54837900325625 H 0.0 **** 0.06
10893 H 16.939876842538666 25.323973040535407 16.53038529497345 H 0.0 **** 0.06
10894 H 18.417795017514692 25.188111788028863 15.546933695405457 H 0.0 **** 0.06
10895 H 17.15278258449456 26.356889537325827 15.096043946731278 H 0.0 **** 0.06
10896 C 102.7574187341551 38.43872250323659 99.03549860343651 C 0.0 **** -0.24
10897 H 101.77014889700173 37.98542404802237 98.95413756410707 H 0.0 **** 0.06
10898 H 103.49282227409084 37.795303125149104 98.55220258029357 H 0.0 **** 0.06
10899 H 103.01536601751248 38.561407372235806 100.08704436321773 H 0.0 **** 0.06
10900 H 102.75124192224479 39.41338699244591 98.54734812917529 H 0.0 **** 0.06
10901 C 134.63279889818298 35.697175737698984 28.962500882022027 C 0.0 **** -0.24
10902 H 133.71679557550746 36.24039943857716 29.192639486067435 H 0.0 **** 0.06
10903 H 135.4104461854404 36.40272334436554 28.670403026983024 H 0.0 **** 0.06
10904 H 134.4466691281335 35.00125510134606 28.144093220208163 H 0.0 **** 0.06
10905 H 134.95685748281502 35.14229462859444 29.84416974196131 H 0.0 **** 0.06
10906 C 113.10498745145772 86.04960760179739 137.45018973545152 C 0.0 **** -0.24
10907 H 113.27555608403391 84.99115693706275 137.6505381609576 H 0.0 **** 0.06
10908 H 113.2323956328808 86.618642467956 138.37198984651158 H 0.0 **** 0.06
10909 H 112.09115845549631 86.1890886218807 137.07339568061738 H 0.0 **** 0.06
10910 H 113.82084796562076 86.3975598018383 136.70627385559231 H 0.0 **** 0.06
10911 C 16.75444883224813 47.384345165931364 140.55590364473105 C 0.0 **** -0.24
10912 H 17.499354918536852 46.786981728712675 140.02897879370795 H 0.0 **** 0.06
10913 H 15.8751467512501 47.508878249363875 139.9226127721061 H 0.0 **** 0.06
10914 H 17.173920341244838 48.36274108864316 140.791078018995 H 0.0 **** 0.06
10915 H 16.47010602644073 46.87903715881538 141.47862183628786 H 0.0 **** 0.06
10916 C 124.11674336568953 107.11377996143065 83.349466235392 C 0.0 **** -0.24
10917 H 123.36180853887035 107.51671908601193 82.67440523013197 H 0.0 **** 0.06
10918 H 124.38385696411811 107.87013821855166 84.0883183602884 H 0.0 **** 0.06
10919 H 125.00226771752679 106.83414309641026 82.77934369476894 H 0.0 **** 0.06
10920 H 123.71838017107709 106.23492603764137 83.85675358593915 H 0.0 **** 0.06
10921 C 110.03325620591411 27.96137741386579 132.36649760027984 C 0.0 **** -0.24
10922 H 110.2518307788338 27.806605776683114 133.42318147064273 H 0.0 **** 0.06
10923 H 110.64563338103281 27.28791219651893 131.76630702815027 H 0.0 **** 0.06
10924 H 110.25579104155511 28.993387148611674 132.09709639607416 H 0.0 **** 0.06
10925 H 108.97794754564862 27.757010330195186 132.1805575381877 H 0.0 **** 0.06
10926 C 67.69840489777411 68.091849955024 63.29506045547177 C 0.0 **** -0.24
10927 H 66.99987195227496 68.31283462478595 62.4876996819937 H 0.0 **** 0.06
10928 H 67.21770349537297 68.28303344948625 64.2543189797881 H 0.0 **** 0.06
10929 H 68.57922006493226 68.72788134800524 63.19706715660553 H 0.0 **** 0.06
10930 H 67.99796144018913 67.04513630503592 63.24044984282743 H 0.0 **** 0.06
10931 C 48.578164847447255 49.67959564657059 35.471241747420244 C 0.0 **** -0.24
10932 H 48.4728477875324 49.889007575985374 36.53475327315961 H 0.0 **** 0.06
10933 H 49.52609912113144 50.081939190912266 35.11285896843247 H 0.0 **** 0.06
10934 H 47.75713433782519 50.144701940723905 34.92583004557716 H 0.0 **** 0.06
10935 H 48.556353460287966 48.60128752250097 35.309560565679696 H 0.0 **** 0.06
10936 C 71.86936026067903 74.8441302730521 5.424234834851461 C 0.0 **** -0.24
10937 H 72.02002011274975 75.33792652050789 6.3839398666222 H 0.0 **** 0.06
10938 H 71.17172266112124 74.01528002849838 5.548548927978459 H 0.0 **** 0.06
10939 H 72.82369994610646 74.46471511458813 5.058013821119175 H 0.0 **** 0.06
10940 H 71.46320475433895 75.55846290606148 4.708564197887597 H 0.0 **** 0.06
10941 C 76.42995426729863 76.46577176253035 30.875728718210212 C 0.0 **** -0.24
10942 H 76.21311358463151 76.0991002130094 29.87182979848943 H 0.0 **** 0.06
10943 H 76.49655241416707 77.55436480629692 30.857622299889584 H 0.0 **** 0.06
10944 H 77.37681846612566 76.04850490110974 31.21825674159963 H 0.0 **** 0.06
10945 H 75.63226470290036 76.16102304722503 31.553243648200407 H 0.0 **** 0.06
10946 C 109.81113913619018 0.695117059172901 39.33902410597619 C 0.0 **** -0.24
10947 H 109.9191861569985 0.06216856009558569 38.45839710087742 H 0.0 **** 0.06
10948 H 110.64537131266619 1.395672399835064 39.38624511709821 H 0.0 **** 0.06
10949 H 109.80724808624993 0.07329329932667861 40.234529544270686 H 0.0 **** 0.06
10950 H 108.87395990825954 1.2474764980282202 39.275881327484086 H 0.0 **** 0.06
10951 C 85.81588397279816 44.4343685938409 124.67677222769659 C 0.0 **** -0.24
10952 H 85.70782125080535 44.935969333475086 125.63868077950576 H 0.0 **** 0.06
10953 H 86.30261217589614 43.46950673433729 124.82357550456288 H 0.0 **** 0.06
10954 H 86.42249706208005 45.05075638440965 124.01245483572914 H 0.0 **** 0.06
10955 H 84.83226437519139 44.28277788465189 124.23434985201439 H 0.0 **** 0.06
10956 C 118.84143368033195 69.25042628556906 17.598925606939638 C 0.0 **** -0.24
10957 H 118.55721018418883 70.28955213302642 17.761984897933083 H 0.0 **** 0.06
10958 H 119.01193988273828 68.76478511663436 18.559845059556693 H 0.0 **** 0.06
10959 H 119.75398704508409 69.21139605746977 17.004393960529228 H 0.0 **** 0.06
10960 H 118.04064491442732 68.73436596131253 17.067863410659463 H 0.0 **** 0.06
10961 C 41.03040909701032 117.38134568844612 130.49761800420367 C 0.0 **** -0.24
10962 H 41.819210334704294 117.82274020262025 129.88826638376452 H 0.0 **** 0.06
10963 H 41.386985093085016 117.25873460036098 131.52017214124623 H 0.0 **** 0.06
10964 H 40.757154234068736 116.40827331292178 130.08882728497875 H 0.0 **** 0.06
10965 H 40.15840300048581 118.03516855347465 130.4915420624027 H 0.0 **** 0.06
10966 C 103.78359192572998 140.51896654595208 93.61273569671795 C 0.0 **** -0.24
10967 H 104.36815375746306 139.60396698987566 93.70759436195084 H 0.0 **** 0.06
10968 H 104.40890037535638 141.3074190831177 93.19456610067408 H 0.0 **** 0.06
10969 H 103.42192396068504 140.82265872776145 94.59436657131357 H 0.0 **** 0.06
10970 H 102.93512429095335 140.33941757727732 92.95214599426617 H 0.0 **** 0.06
10971 C 103.38225861833446 54.68658184418331 68.72670413034082 C 0.0 **** -0.24
10972 H 104.0804404639416 55.366184650439834 69.21586980206581 H 0.0 **** 0.06
10973 H 103.78624797093154 53.67464969023291 68.74858556830385 H 0.0 **** 0.06
10974 H 103.235918124127 54.998271049478774 67.69281333872405 H 0.0 **** 0.06
10975 H 102.42677878744864 54.708133054826476 69.25179438851043 H 0.0 **** 0.06
10976 C 7.7148021751655165 65.51142457595373 57.62422614077401 C 0.0 **** -0.24
10977 H 8.265740376784095 66.12427997544127 56.911602675188036 H 0.0 **** 0.06
10978 H 7.284862765290882 64.65292313841131 57.107810318111035 H 0.0 **** 0.06
10979 H 6.916103881585769 66.10411383988416 58.07142119427762 H 0.0 **** 0.06
10980 H 8.390341405467609 65.16450589453353 58.40550651916375 H 0.0 **** 0.06
10981 C 44.977886972712156 71.32352013987921 83.60090873215803 C 0.0 **** -0.24
10982 H 44.888710281706096 72.11716592461876 82.85876938933066 H 0.0 **** 0.06
10983 H 45.840433082106586 70.70016373289084 83.3629844964024 H 0.0 **** 0.06
10984 H 44.07512638685063 70.71420181643623 83.59178051837101 H 0.0 **** 0.06
10985 H 45.10987022057907 71.76454560653686 84.58896230335078 H 0.0 **** 0.06
10986 C 36.70368613401714 6.552741476553848 111.70847000535272 C 0.0 **** -0.24
10987 H 37.418988401057554 6.8432617060554435 110.93914916772437 H 0.0 **** 0.06
10988 H 37.23306133042609 6.079938617917662 112.53596578986898 H 0.0 **** 0.06
10989 H 35.983650207628564 5.850074094096186 111.28945485513711 H 0.0 **** 0.06
10990 H 36.18039184746491 7.437921667458937 112.06967355550617 H 0.0 **** 0.06
10991 C 4.3767227041137176 97.30908109498355 124.40516314377979 C 0.0 **** -0.24
10992 H 3.7671263384288523 98.06882958334702 124.89419933521617 H 0.0 **** 0.06
10993 H 5.133412089601904 97.79222878642503 123.78684090688543 H 0.0 **** 0.06
10994 H 3.741702315499424 96.68219612666624 123.77910624342357 H 0.0 **** 0.06
10995 H 4.863839131686348 96.69193318394164 125.1602816440639 H 0.0 **** 0.06
10996 C 61.3684373553765 46.963680235569086 124.42258508671533 C 0.0 **** -0.24
10997 H 61.092177577034704 47.495839779533725 125.33274311819193 H 0.0 **** 0.06
10998 H 62.42558961185378 47.12781169783224 124.21263059763653 H 0.0 **** 0.06
10999 H 60.77018525251455 47.33533955259196 123.59063696751555 H 0.0 **** 0.06
11000 H 61.18456542610872 45.898229535254245 124.55544121786846 H 0.0 **** 0.06
11001 C 16.73428526470488 143.1173511126394 138.10774024958553 C 0.0 **** -0.24
11002 H 17.382952352053138 143.15807079169 137.2334286580144 H 0.0 **** 0.06
11003 H 16.812776292967868 144.053623403248 138.66170353356264 H 0.0 **** 0.06
11004 H 17.039132265310542 142.28960679873765 138.74765628380024 H 0.0 **** 0.06
11005 H 15.70225174588063 142.96897306773556 137.78866548740302 H 0.0 **** 0.06
11006 C 74.64108750770895 83.42724559558246 92.73405709435201 C 0.0 **** -0.24
11007 H 74.64413635772378 82.36662187363794 92.48064642547445 H 0.0 **** 0.06
11008 H 75.57947977843023 83.87971587576732 92.41224578032012 H 0.0 **** 0.06
11009 H 74.53269749961011 83.54114130249314 93.81242634864799 H 0.0 **** 0.06
11010 H 73.80856344534061 83.91796152959103 92.23048741003288 H 0.0 **** 0.06
11011 C 63.14109087546014 82.76516213633684 37.874679828784 C 0.0 **** -0.24
11012 H 63.66048847279686 82.13259460490454 38.59584723880957 H 0.0 **** 0.06
11013 H 63.86997402092939 83.24959143961004 37.22534903198118 H 0.0 **** 0.06
11014 H 62.565764235415074 83.52289603307455 38.40612076912535 H 0.0 **** 0.06
11015 H 62.468332205272915 82.15288165315343 37.27452546577473 H 0.0 **** 0.06
11016 C 51.162112924232076 53.97009280029451 98.05691461560158 C 0.0 **** -0.24
11017 H 51.677984074973836 54.925336043767416 97.95536052149963 H 0.0 **** 0.06
11018 H 50.637883610935035 53.74096934413946 97.12829465410005 H 0.0 **** 0.06
11019 H 50.44453067495641 54.030517383741994 98.8749955833846 H 0.0 **** 0.06
11020 H 51.88920395641435 53.18616544099423 98.26705121473502 H 0.0 **** 0.06
11021 C 138.2498566714096 114.15216220549536 13.89398084457494 C 0.0 **** -0.24
11022 H 137.51813803642227 113.66824791490677 13.24684120979353 H 0.0 **** 0.06
11023 H 137.95948490775308 115.18991739331602 14.057373925036188 H 0.0 **** 0.06
11024 H 139.23110182182447 114.11889724915443 13.419440710254293 H 0.0 **** 0.06
11025 H 138.29138448131684 113.63021776226253 14.849686505507236 H 0.0 **** 0.06
11026 C 135.6608144242722 20.59614892642992 79.77192294146045 C 0.0 **** -0.24
11027 H 135.62910882966267 21.55072004055353 80.29719871741338 H 0.0 **** 0.06
11028 H 134.67268811055374 20.36903374955432 79.37228940604717 H 0.0 **** 0.06
11029 H 135.96330890724815 19.8103756214025 80.4634605445134 H 0.0 **** 0.06
11030 H 136.37877629731383 20.657195441628346 78.95366503822913 H 0.0 **** 0.06
11031 C 3.888920496216201 67.35449066375975 16.978880365834726 C 0.0 **** -0.24
11032 H 4.875214918139591 67.42541689786718 16.52003323470285 H 0.0 **** 0.06
11033 H 3.2189192048430186 66.80717185258058 16.315150508146274 H 0.0 **** 0.06
11034 H 3.495027427665775 68.35608714403112 17.150092568660256 H 0.0 **** 0.06
11035 H 3.9684672337621123 66.82789720753846 17.9297165915018 H 0.0 **** 0.06
11036 C 42.07131622536508 124.97265267942149 42.685021226701025 C 0.0 **** -0.24
11037 H 41.66579234603185 124.04337605149655 42.28437269379381 H 0.0 **** 0.06
11038 H 42.1883138874239 124.8818388852822 43.76498294123846 H 0.0 **** 0.06
11039 H 41.38902932355313 125.79301998853597 42.461425662994 H 0.0 **** 0.06
11040 H 43.040485746895484 125.17184328336035 42.22942670335189 H 0.0 **** 0.06
11041 C 142.42567367449809 16.7863482345864 21.57808615686337 C 0.0 **** -0.24
11042 H 142.76848347732454 17.81604424964783 21.685387157089217 H 0.0 **** 0.06
11043 H 142.63070619075634 16.23797125805629 22.497389287138034 H 0.0 **** 0.06
11044 H 142.95125550221638 16.313870250341296 20.747095015590254 H 0.0 **** 0.06
11045 H 141.35346005014236 16.7794568579977 21.380297431185838 H 0.0 **** 0.06
11046 C 89.09270395313283 22.17286628983942 101.37197306651048 C 0.0 **** -0.24
11047 H 88.1630521881552 21.621566193032436 101.22906499256753 H 0.0 **** 0.06
11048 H 89.91400339489573 21.627908780911753 100.90799636521844 H 0.0 **** 0.06
11049 H 89.28722890637349 22.285412711214576 102.4388963411158 H 0.0 **** 0.06
11050 H 89.00407219276408 23.15826241229456 100.91419604301227 H 0.0 **** 0.06
11051 C 53.58031755311012 69.95043367902122 54.45694921040216 C 0.0 **** -0.24
11052 H 54.445589862116265 70.61180104195529 54.41130994457248 H 0.0 **** 0.06
11053 H 53.52594058035788 69.36071354977508 53.540627045657914 H 0.0 **** 0.06
11054 H 52.67357507669041 70.54686721272793 54.55961874431085 H 0.0 **** 0.06
11055 H 53.67644743206253 69.28444468026345 55.31315158051858 H 0.0 **** 0.06
11056 C 4.480431019893501 129.93446892902577 57.98793921883248 C 0.0 **** -0.24
11057 H 4.023339133224624 128.98400159403357 57.71380654830517 H 0.0 **** 0.06
11058 H 4.852520711077773 129.87856990098246 59.011353843486006 H 0.0 **** 0.06
11059 H 3.739007759503295 130.72946169828813 57.9135489962153 H 0.0 **** 0.06
11060 H 5.309248705188338 130.1468610345713 57.31124740149433 H 0.0 **** 0.06
11061 C 137.87266458051516 10.637676688422715 91.19797959399803 C 0.0 **** -0.24
11062 H 136.92027418336534 10.858283468073722 91.67877271279407 H 0.0 **** 0.06
11063 H 138.65639293927137 10.575900329277232 91.95487758022112 H 0.0 **** 0.06
11064 H 138.11449559786502 11.429497980139445 90.48901577472256 H 0.0 **** 0.06
11065 H 137.8017855434427 9.686941601385087 90.6701180315943 H 0.0 **** 0.06
11066 C 87.08276094545926 106.72029343564932 109.16206393237557 C 0.0 **** -0.24
11067 H 86.58914732626175 105.75769453631793 109.29901242576248 H 0.0 **** 0.06
11068 H 88.00347330294679 106.74205933165771 109.74513502525086 H 0.0 **** 0.06
11069 H 86.42082048646304 107.51813477352383 109.49815455406365 H 0.0 **** 0.06
11070 H 87.31639484135582 106.8617653541177 108.10706356529478 H 0.0 **** 0.06
11071 C 81.41213282157756 47.49499089358241 88.79697544436476 C 0.0 **** -0.24
11072 H 81.16759840107693 46.47674922412122 89.09884412486406 H 0.0 **** 0.06
11073 H 80.70161065773502 48.187857583039374 89.2463871133524 H 0.0 **** 0.06
11074 H 81.3593042409718 47.572832274365254 87.71037946619685 H 0.0 **** 0.06
11075 H 82.42030730694617 47.74053528374074 89.1303011759494 H 0.0 **** 0.06
11076 C 137.59036773595508 38.64445974571223 17.901203647337496 C 0.0 **** -0.24
11077 H 137.1190676530994 38.790948862311915 16.929673391135573 H 0.0 **** 0.06
11078 H 137.73699583324077 37.57808518172297 18.076087713028997 H 0.0 **** 0.06
11079 H 136.94929658077882 39.055285680244566 18.681126540176997 H 0.0 **** 0.06
11080 H 138.55461056691283 39.151654063124234 17.917406965605146 H 0.0 **** 0.06
11081 C 21.3098307643225 101.5213608800619 47.1684453058766 C 0.0 **** -0.24
11082 H 22.38021724283834 101.711221010895 47.24186037762769 H 0.0 **** 0.06
11083 H 21.077526788533362 101.12099331537033 46.18093042951074 H 0.0 **** 0.06
11084 H 20.764027509697712 102.45248225880349 47.3206250656754 H 0.0 **** 0.06
11085 H 21.01575842253453 100.79977666312735 47.931283830735666 H 0.0 **** 0.06
11086 C 101.81652213513746 82.37010775963032 71.58335949162114 C 0.0 **** -0.24
11087 H 102.41001211249471 81.49418356732647 71.31875523408922 H 0.0 **** 0.06
11088 H 101.21531869537017 82.67263800481471 70.72625112656189 H 0.0 **** 0.06
11089 H 102.48067426454742 83.1858041930082 71.86836502814717 H 0.0 **** 0.06
11090 H 101.16094467694876 82.12574692943848 72.41991907159934 H 0.0 **** 0.06
11091 C 103.48658296369638 117.64996984288159 32.7260455616914 C 0.0 **** -0.24
11092 H 102.73749907513783 117.03470124489378 33.22306740825516 H 0.0 **** 0.06
11093 H 102.9901660626284 118.39200479140705 32.10066384312734 H 0.0 **** 0.06
11094 H 104.12257888740302 117.01800713147337 32.10641728608106 H 0.0 **** 0.06
11095 H 104.09620173881542 118.15552670985274 33.47495950826928 H 0.0 **** 0.06
11096 C 70.06825770843452 110.48294221187439 96.4504320545058 C 0.0 **** -0.24
11097 H 70.57422223456004 109.60612421953005 96.85589111689792 H 0.0 **** 0.06
11098 H 69.01446902276075 110.45493731827338 96.73021427479985 H 0.0 **** 0.06
11099 H 70.15627510649452 110.4829551843232 95.36485121816422 H 0.0 **** 0.06
11100 H 70.52707100768563 111.38615180438188 96.85288166858038 H 0.0 **** 0.06
11101 C 53.958482407883224 131.22565708192946 83.78497095998806 C 0.0 **** -0.24
11102 H 53.51353386827928 131.64777002363041 82.8839163800459 H 0.0 **** 0.06
11103 H 54.80736375694585 130.59934495657063 83.5099446141706 H 0.0 **** 0.06
11104 H 53.21598826303975 130.62369181592098 84.30802652343058 H 0.0 **** 0.06
11105 H 54.29703731571864 132.0323052677431 84.43520951275246 H 0.0 **** 0.06
11106 C 73.65009702420966 17.904586895952633 87.60590485824827 C 0.0 **** -0.24
11107 H 74.38782550664845 17.996475934423785 88.40332570543251 H 0.0 **** 0.06
11108 H 73.69584566245149 16.902195845033333 87.18134026087415 H 0.0 **** 0.06
11109 H 73.86308311654977 18.638980735941857 86.82931005055457 H 0.0 **** 0.06
11110 H 72.65398093816518 18.084195472848677 88.01179455867322 H 0.0 **** 0.06
11111 C 91.48009464714232 83.84963443640879 117.0774629959344 C 0.0 **** -0.24
11112 H 90.79801249375765 84.63500786788359 116.74920931407185 H 0.0 **** 0.06
11113 H 91.31112527526662 83.6406824180786 118.13424601109021 H 0.0 **** 0.06
11114 H 92.50903041519459 84.17754305814185 116.93012661079023 H 0.0 **** 0.06
11115 H 91.30034088035521 82.94610531110442 116.49406464146831 H 0.0 **** 0.06
11116 C 112.9542184427712 19.159805385331865 15.887849893107493 C 0.0 **** -0.24
11117 H 111.87435178000722 19.27361114441328 15.79332935718277 H 0.0 **** 0.06
11118 H 113.23271794767327 18.132745986641297 15.652289062327178 H 0.0 **** 0.06
11119 H 113.25574764882445 19.393988468638838 16.908308747709967 H 0.0 **** 0.06
11120 H 113.45187961813544 19.839088797878404 15.196369409914574 H 0.0 **** 0.06
11121 C 55.31856173239416 75.16116613698793 108.41194961340129 C 0.0 **** -0.24
11122 H 56.343494124538765 74.80082551452699 108.5033178189769 H 0.0 **** 0.06
11123 H 54.70862733769522 74.40286723231625 107.92208876208967 H 0.0 **** 0.06
11124 H 55.30724071942984 76.07602590449369 107.81926137424155 H 0.0 **** 0.06
11125 H 54.917299910317524 75.36598354907903 109.40488853832589 H 0.0 **** 0.06
11126 C 116.76739859650976 130.11669137005183 143.2098814650322 C 0.0 **** -0.24
11127 H 116.45995512280777 130.18944393732565 142.1669972714933 H 0.0 **** 0.06
11128 H 116.15266049126453 130.7814083220289 143.81698470328934 H 0.0 **** 0.06
11129 H 117.8152028065542 130.40481706436552 143.3011769633973 H 0.0 **** 0.06
11130 H 116.64259137943995 129.09013738587595 143.55501186089398 H 0.0 **** 0.06
11131 C 96.3184644100765 50.70560752142805 123.03575946548806 C 0.0 **** -0.24
11132 H 96.46418489231297 51.762255306766946 123.26232057741899 H 0.0 **** 0.06
11133 H 97.01902298140942 50.40280260100795 122.25682698249538 H 0.0 **** 0.06
11134 H 95.29769923518177 50.54672183446462 122.68884352639417 H 0.0 **** 0.06
11135 H 96.49460873743072 50.114073025866645 123.93316624798595 H 0.0 **** 0.06
11136 C 141.31255320652116 18.36802132644732 115.86056935876708 C 0.0 **** -0.24
11137 H 140.8588579898382 17.383117277880956 115.97028514443296 H 0.0 **** 0.06
11138 H 140.54645459558301 19.09279826910597 115.5841200482097 H 0.0 **** 0.06
11139 H 142.07504114483805 18.330885415264504 115.08210870239624 H 0.0 **** 0.06
11140 H 141.7707118945404 18.66426598448362 116.80426826282572 H 0.0 **** 0.06
11141 C 96.1018737764521 91.47238761872116 67.9413798132382 C 0.0 **** -0.24
11142 H 95.66827125077921 91.34730824124047 68.93337420752454 H 0.0 **** 0.06
11143 H 96.71930104428742 90.60583913395163 67.70361477578123 H 0.0 **** 0.06
11144 H 96.71538552810165 92.37302140242572 67.92464654590395 H 0.0 **** 0.06
11145 H 95.30354944468544 91.5635103020549 67.20488757848712 H 0.0 **** 0.06
11146 C 68.87181922058642 143.8399719878227 84.24140583636269 C 0.0 **** -0.24
11147 H 68.52442021129801 142.80772597065598 84.20679435233664 H 0.0 **** 0.06
11148 H 68.32432166567006 144.38124420476524 85.0137877130224 H 0.0 **** 0.06
11149 H 68.70015940625987 144.31384654206838 83.2744038944182 H 0.0 **** 0.06
11150 H 69.93749497486161 143.85733899520872 84.47102834402206 H 0.0 **** 0.06
11151 C 101.34517921088914 1.6930956722743424 93.29662418085432 C 0.0 **** -0.24
11152 H 102.08878980783894 0.9053661181310275 93.17335881343827 H 0.0 **** 0.06
11153 H 101.80327614261947 2.5504779940976867 93.79027149978414 H 0.0 **** 0.06
11154 H 100.51933630574999 1.3217510026664776 93.90311203153183 H 0.0 **** 0.06
11155 H 100.97131792228154 1.9950287252313146 92.31777224728995 H 0.0 **** 0.06
11156 C 108.71088493195276 62.90856134088396 16.581122650562804 C 0.0 **** -0.24
11157 H 108.03186975638584 62.82774348442747 17.431162562432974 H 0.0 **** 0.06
11158 H 109.428275963298 63.70865641126967 16.76636823694497 H 0.0 **** 0.06
11159 H 108.14029949916107 63.1334656832216 15.68105647687446 H 0.0 **** 0.06
11160 H 109.24232710512814 61.96646646319279 16.45049222560573 H 0.0 **** 0.06
11161 C 89.69769944711035 111.8272716875285 37.49800587430033 C 0.0 **** -0.24
11162 H 89.3628590150991 111.89594648650147 36.46352218426527 H 0.0 **** 0.06
11163 H 90.49113549082156 111.08350436370121 37.57417888642587 H 0.0 **** 0.06
11164 H 88.86132314408113 111.5320520518908 38.13193249634067 H 0.0 **** 0.06
11165 H 90.07538071005584 112.7965995894452 37.82224366761443 H 0.0 **** 0.06
11166 C 79.47276836483599 41.400791658171045 27.117082248079186 C 0.0 **** -0.24
11167 H 80.07838635989611 42.28727693034932 27.302307926178486 H 0.0 **** 0.06
11168 H 78.72978787229727 41.62261884722119 26.35055004865481 H 0.0 **** 0.06
11169 H 78.96850828718595 41.10659632991707 28.037432599502665 H 0.0 **** 0.06
11170 H 80.11385345894422 40.587024879559806 26.77727133933061 H 0.0 **** 0.06
11171 C 137.31606098402852 62.00495810340891 87.94408008710528 C 0.0 **** -0.24
11172 H 138.1859698254304 62.143776459416415 88.58571234214284 H 0.0 **** 0.06
11173 H 137.18512441005598 60.94204900651545 87.73568176672264 H 0.0 **** 0.06
11174 H 137.46648039673434 62.543194892446536 87.00803677983566 H 0.0 **** 0.06
11175 H 136.42848654404335 62.38934078736975 88.44615920556429 H 0.0 **** 0.06
11176 C 59.60429896296341 144.12036710904394 112.3277749428284 C 0.0 **** -0.24
11177 H 58.65854326160655 144.09187736936175 111.78690585375642 H 0.0 **** 0.06
11178 H 60.327381992392986 144.71017992849013 111.76439792178058 H 0.0 **** 0.06
11179 H 59.981284210621425 143.10518213527288 112.45222771727606 H 0.0 **** 0.06
11180 H 59.448166128501555 144.57265134523792 113.30712340091122 H 0.0 **** 0.06
11181 C 38.50238595736886 39.32796371822161 48.73497393367762 C 0.0 **** -0.24
11182 H 38.07279249118761 39.50955401460877 47.7500032251736 H 0.0 **** 0.06
11183 H 38.44694095086115 38.26279577130629 48.9641116269174 H 0.0 **** 0.06
11184 H 37.94540337723038 39.8906008419616 49.48298174805075 H 0.0 **** 0.06
11185 H 39.545113555162175 39.64714667734805 48.741246069142534 H 0.0 **** 0.06
11186 C 40.309578041555376 15.123219568167855 97.9573802710442 C 0.0 **** -0.24
11187 H 41.38870527770854 15.00523662941464 98.05925942447705 H 0.0 **** 0.06
11188 H 39.991932553177605 16.02445283505159 98.48237252481233 H 0.0 **** 0.06
11189 H 39.80715768084262 14.25638159138029 98.38471097109507 H 0.0 **** 0.06
11190 H 40.05306183488224 15.208379727782898 96.90093097051611 H 0.0 **** 0.06
11191 C 95.34561331772159 117.03532189314727 18.69812642231699 C 0.0 **** -0.24
11192 H 94.64836445494838 116.28355185445652 18.327802585562864 H 0.0 **** 0.06
11193 H 95.90700380763113 116.62673140280252 19.5383706880246 H 0.0 **** 0.06
11194 H 94.7912220639957 117.91515120996841 19.023772827092188 H 0.0 **** 0.06
11195 H 96.0352706459862 117.31484252697344 17.9006548228744 H 0.0 **** 0.06
11196 C 126.5867397165573 5.339701480711767 144.48606571453442 C 0.0 **** -0.24
11197 H 126.64891786598486 4.259187504964274 144.35632240229728 H 0.0 **** 0.06
11198 H 126.18192729439426 5.792440667260394 143.58063816251857 H 0.0 **** 0.06
11199 H 127.58185531223597 5.740241057334458 144.67946399445535 H 0.0 **** 0.06
11200 H 125.93405295713075 5.566740826414616 145.32981809853993 H 0.0 **** 0.06
11201 C 48.70004388801149 74.4822296875103 41.97831072765197 C 0.0 **** -0.24
11202 H 49.31820372006024 75.37799857355637 42.02265428210396 H 0.0 **** 0.06
11203 H 47.8960718009279 74.55745323592842 42.71072810402572 H 0.0 **** 0.06
11204 H 49.31233203514748 73.60681566578644 42.19896088475909 H 0.0 **** 0.06
11205 H 48.274843799495414 74.38444010545258 40.97968168860464 H 0.0 **** 0.06
11206 C 116.95814810401066 75.85158138986759 125.9653989491533 C 0.0 **** -0.24
11207 H 117.23271683425855 76.17160545253401 126.97053252628123 H 0.0 **** 0.06
11208 H 116.10054510359856 76.42994348890974 125.6207958438022 H 0.0 **** 0.06
11209 H 116.70011532417459 74.79282197959017 125.97969849503258 H 0.0 **** 0.06
11210 H 117.79916098929436 76.0110004308322 125.29027465660377 H 0.0 **** 0.06
11211 C 84.98480673220465 75.79024323269971 38.82959649034874 C 0.0 **** -0.24
11212 H 84.81194790640254 76.43059825050432 37.96470680483487 H 0.0 **** 0.06
11213 H 85.62716520123976 76.30854265313633 39.54258405707748 H 0.0 **** 0.06
11214 H 85.46932420933982 74.86838581884837 38.50756135674524 H 0.0 **** 0.06
11215 H 84.03174331295435 75.55471945250491 39.3028485898758 H 0.0 **** 0.06
11216 C 7.179677202341139 122.22536355817043 125.73189053375887 C 0.0 **** -0.24
11217 H 6.4222699867249275 122.0828272902982 124.96186743880804 H 0.0 **** 0.06
11218 H 6.933969707449876 123.1070096509853 126.32379921518651 H 0.0 **** 0.06
11219 H 8.154072853291694 122.36231123721517 125.2621721318173 H 0.0 **** 0.06
11220 H 7.208396261897889 121.34930605418309 126.37972334922347 H 0.0 **** 0.06
11221 C 64.65549427621309 104.19716024180207 7.569963577062481 C 0.0 **** -0.24
11222 H 63.74980817934275 104.25829699589241 8.173566010853875 H 0.0 **** 0.06
11223 H 65.33469069733084 103.46611216525177 8.009057925671726 H 0.0 **** 0.06
11224 H 65.13958622487723 105.1740338869556 7.543171463602846 H 0.0 **** 0.06
11225 H 64.39671783359063 103.89113827980218 6.5570148390676195 H 0.0 **** 0.06
11226 C 51.213307194488934 136.71602330914226 22.192042332300318 C 0.0 **** -0.24
11227 H 52.230758342455545 136.38899236974814 22.407009385960976 H 0.0 **** 0.06
11228 H 50.54608491696861 135.85400323951308 22.200971997008168 H 0.0 **** 0.06
11229 H 51.183492507792565 137.18890895698632 21.210659061605135 H 0.0 **** 0.06
11230 H 50.8937616568376 137.4305289479407 22.950749947272087 H 0.0 **** 0.06
11231 C 7.518122568996489 102.1249045909148 118.15418373534696 C 0.0 **** -0.24
11232 H 6.870085070510811 102.91645523867564 117.77801639912609 H 0.0 **** 0.06
11233 H 8.036761391504456 102.47412372755987 119.04689682081367 H 0.0 **** 0.06
11234 H 8.247505691517688 101.85980120169555 117.38868627802056 H 0.0 **** 0.06
11235 H 6.916117073094483 101.25065349748994 118.40032245712091 H 0.0 **** 0.06
11236 C 122.82280499115816 89.61348983698545 141.71135122514616 C 0.0 **** -0.24
11237 H 122.61121106671398 90.60753388889722 141.31593830120747 H 0.0 **** 0.06
11238 H 121.88574541997404 89.11707116370039 141.96634891123537 H 0.0 **** 0.06
11239 H 123.44147820329096 89.70218797759989 142.60447999616727 H 0.0 **** 0.06
11240 H 123.35137044781628 89.02877899982738 140.9592683582322 H 0.0 **** 0.06
11241 C 130.66944419716967 125.78773107291049 66.76609887196344 C 0.0 **** -0.24
11242 H 130.1171923814084 126.1774881831214 67.62078664657383 H 0.0 **** 0.06
11243 H 130.0945372020526 125.95515965995139 65.85445224128323 H 0.0 **** 0.06
11244 H 130.8362674852817 124.71815697557415 66.8992273818948 H 0.0 **** 0.06
11245 H 131.62886467036375 126.29808124531672 66.68983685673291 H 0.0 **** 0.06
11246 C 5.753073332158124 118.58935158250209 70.41638681210163 C 0.0 **** -0.24
11247 H 6.395494045239786 117.79277366597101 70.79101345846132 H 0.0 **** 0.06
11248 H 6.327674661420758 119.23825016875291 69.75540130912295 H 0.0 **** 0.06
11249 H 5.368678367487291 119.17137049956357 71.254563660361 H 0.0 **** 0.06
11250 H 4.9193890804784814 118.15420970393053 69.86505749045973 H 0.0 **** 0.06
11251 C 109.23518893597286 33.39548529761284 0.4178358190802065 C 0.0 **** -0.24
11252 H 108.29798401637005 32.85357866924721 0.5544855692259567 H 0.0 **** 0.06
11253 H 110.04452638464666 32.683352752909144 0.2543700325069089 H 0.0 **** 0.06
11254 H 109.4444863780662 33.98829713087136 1.308462914221316 H 0.0 **** 0.06
11255 H 109.15068194841201 34.05458426852783 -0.44592398060523664 H 0.0 **** 0.06
11256 C 6.854573212914431 67.72995440407294 33.11890275228947 C 0.0 **** -0.24
11257 H 6.04350269360441 67.13414074143051 33.537458106871014 H 0.0 **** 0.06
11258 H 7.122915761509745 67.33834326585657 32.138024644335076 H 0.0 **** 0.06
11259 H 7.719653774265538 67.68058861814478 33.78005366554032 H 0.0 **** 0.06
11260 H 6.530282037338139 68.7664849403248 33.0204922488237 H 0.0 **** 0.06
11261 C 64.72222079160318 32.516620789513496 121.43107170673524 C 0.0 **** -0.24
11262 H 65.00272048243407 32.52788715529337 120.37705891704168 H 0.0 **** 0.06
11263 H 65.09128296719047 31.602029798528633 121.89518088057947 H 0.0 **** 0.06
11264 H 63.63682372834711 32.5564220874609 121.51756983796618 H 0.0 **** 0.06
11265 H 65.15830265776958 33.381588862597795 121.93103444894571 H 0.0 **** 0.06
11266 C 110.00096553543287 125.56024339366246 58.00046413232896 C 0.0 **** -0.24
11267 H 109.0550174167764 125.93690617897752 58.39030156512645 H 0.0 **** 0.06
11268 H 110.64552293151397 126.40067407278082 57.73964425665049 H 0.0 **** 0.06
11269 H 109.81320784572816 124.95674236359129 57.113027709049135 H 0.0 **** 0.06
11270 H 110.48883870420079 124.9487423725285 58.75888560319707 H 0.0 **** 0.06
11271 C 3.230385388150115 89.88219440636476 76.1820936970349 C 0.0 **** -0.24
11272 H 3.878903381256894 89.24031996659012 76.77877580225312 H 0.0 **** 0.06
11273 H 2.463846083446814 90.31938319434896 76.82231660841097 H 0.0 **** 0.06
11274 H 2.755705691777102 89.29054285669656 75.39918275980096 H 0.0 **** 0.06
11275 H 3.8230772417255423 90.67656716769731 75.72956288568876 H 0.0 **** 0.06
11276 C 104.13318409870723 141.57400377544002 108.00749365746604 C 0.0 **** -0.24
11277 H 104.58038755772262 142.14964292886032 108.81727479073403 H 0.0 **** 0.06
11278 H 103.12421720034567 141.27306254311213 108.28993140277602 H 0.0 **** 0.06
11279 H 104.73680389724782 140.68572391060673 107.81706260671838 H 0.0 **** 0.06
11280 H 104.09185186700282 142.18556840218002 107.10651573142148 H 0.0 **** 0.06
11281 C 52.779506053208365 19.506765463453988 132.51586334810747 C 0.0 **** -0.24
11282 H 53.83501043650668 19.31402021861956 132.70616740906522 H 0.0 **** 0.06
11283 H 52.593876771504526 20.579829995041102 132.5518652756581 H 0.0 **** 0.06
11284 H 52.176980341346066 19.007323602668528 133.2744505107365 H 0.0 **** 0.06
11285 H 52.51228306870247 19.12400276462391 131.5303144968252 H 0.0 **** 0.06
11286 C 127.22051930769355 97.95068128470118 49.4804693255648 C 0.0 **** -0.24
11287 H 127.44460221567317 97.99484857989907 50.54634173967767 H 0.0 **** 0.06
11288 H 126.14454749358362 97.84960030515353 49.33901905096353 H 0.0 **** 0.06
11289 H 127.72809101825644 97.0933723600825 49.03901464377394 H 0.0 **** 0.06
11290 H 127.56688936193252 98.86565692192372 48.99860594293911 H 0.0 **** 0.06
11291 C 141.68742821179083 5.400481214796784 20.318509086996784 C 0.0 **** -0.24
11292 H 140.86745507424837 5.964353138955321 19.87446699875332 H 0.0 **** 0.06
11293 H 142.5560289664511 6.049237175678684 20.429415844999255 H 0.0 **** 0.06
11294 H 141.94036776701728 4.559038849627537 19.67366010297249 H 0.0 **** 0.06
11295 H 141.38327584326987 5.029255931912118 21.29764036642544 H 0.0 **** 0.06
11296 C 26.563706153282 36.16272928100955 67.48861026600628 C 0.0 **** -0.24
11297 H 25.748812365987874 35.729619628344494 68.06870512249363 H 0.0 **** 0.06
11298 H 27.275326393289617 35.38162915361539 67.22252552888702 H 0.0 **** 0.06
11299 H 27.06657211003227 36.92605535717627 68.0817889884936 H 0.0 **** 0.06
11300 H 26.162218661157 36.6138661116201 66.58083425867214 H 0.0 **** 0.06
11301 C 64.16645365728064 133.69990342657204 21.707104584978254 C 0.0 **** -0.24
11302 H 63.860298233942075 134.7363616857215 21.851704254590686 H 0.0 **** 0.06
11303 H 65.17495037152398 133.67390239812218 21.295225732634606 H 0.0 **** 0.06
11304 H 63.4782689207415 133.2113664155973 21.01680879105743 H 0.0 **** 0.06
11305 H 64.15053111994226 133.1803292836818 22.66529407018345 H 0.0 **** 0.06
11306 C 59.77857463549233 45.85083278756106 11.814511767480212 C 0.0 **** -0.24
11307 H 59.00866626508642 46.59773058942331 12.011584673204084 H 0.0 **** 0.06
11308 H 59.90971504575663 45.22354450228866 12.69697737844993 H 0.0 **** 0.06
11309 H 60.71748234583788 46.351234900686606 11.580016816167472 H 0.0 **** 0.06
11310 H 59.475218251962474 45.23130714020071 10.970658838643317 H 0.0 **** 0.06
11311 C 114.87603663624866 135.5090948872505 38.64626301388199 C 0.0 **** -0.24
11312 H 115.39238530305418 135.87118295612942 37.75738609944918 H 0.0 **** 0.06
11313 H 114.4329059170535 134.53559236233616 38.436477658765426 H 0.0 **** 0.06
11314 H 114.09286708211364 136.21394057755174 38.9242699746996 H 0.0 **** 0.06
11315 H 115.5886588557944 135.41466438361442 39.465985756285164 H 0.0 **** 0.06
11316 C 53.070797759866196 66.0853738006268 97.22424607272728 C 0.0 **** -0.24
11317 H 52.55064674041432 65.14698905667309 97.02932575562616 H 0.0 **** 0.06
11318 H 53.917117378023875 65.90068177191154 97.88520054674146 H 0.0 **** 0.06
11319 H 52.38523901671678 66.78877391217281 97.69861139891461 H 0.0 **** 0.06
11320 H 53.4278025308416 66.5046348056151 96.28347579927069 H 0.0 **** 0.06
11321 C 9.78102081992057 15.776285399206188 121.37066344943293 C 0.0 **** -0.24
11322 H 8.853502929878289 16.33244830289692 121.23729458617419 H 0.0 **** 0.06
11323 H 9.913151326375896 15.538770670849658 122.42695187863194 H 0.0 **** 0.06
11324 H 10.62056515888986 16.38146345604008 121.0273112154565 H 0.0 **** 0.06
11325 H 9.738127434749174 14.853086686476502 120.79309858389047 H 0.0 **** 0.06
11326 C 18.340238035262416 71.86575717430696 9.187019773779472 C 0.0 **** -0.24
11327 H 19.3163844259102 72.21614115309774 9.521565979573232 H 0.0 **** 0.06
11328 H 18.45334237276103 71.30517973413436 8.258949598727714 H 0.0 **** 0.06
11329 H 17.687110369886 72.72218883659212 9.017037440039658 H 0.0 **** 0.06
11330 H 17.904141496621946 71.22192941173381 9.95096121539838 H 0.0 **** 0.06
11331 C 60.26701070898379 65.91606194900399 105.63841633009586 C 0.0 **** -0.24
11332 H 59.88668723783938 65.92812912758251 104.61712189400322 H 0.0 **** 0.06
11333 H 59.44151816143527 65.75468729910213 106.33211165120572 H 0.0 **** 0.06
11334 H 60.745724042731666 66.86956109096957 105.85809282064484 H 0.0 **** 0.06
11335 H 60.99455235405762 65.11116591020965 105.74519384891188 H 0.0 **** 0.06
11336 C 110.48454262658136 10.043287189019878 142.28862183493322 C 0.0 **** -0.24
11337 H 110.17358519683408 9.004964139861073 142.18125078753695 H 0.0 **** 0.06
11338 H 110.32636029650966 10.36472826292956 143.31825278805871 H 0.0 **** 0.06
11339 H 109.89624545728059 10.670210724093494 141.61816658546698 H 0.0 **** 0.06
11340 H 111.54162533597996 10.134019812574564 142.0373417853479 H 0.0 **** 0.06
11341 C 63.724081602594595 90.31758894673115 11.6087904081146 C 0.0 **** -0.24
11342 H 64.59827910755928 89.90306213943012 11.106053722414288 H 0.0 **** 0.06
11343 H 63.74250326162672 91.40488988564275 11.532611548474108 H 0.0 **** 0.06
11344 H 63.738123954511195 90.02529649374247 12.65872984753247 H 0.0 **** 0.06
11345 H 62.81902212610402 89.93420502410105 11.13766196783655 H 0.0 **** 0.06
11346 C 19.233965296824856 96.73113669997957 67.54014347226546 C 0.0 **** -0.24
11347 H 19.696196301515798 96.62751687252913 66.55782408407985 H 0.0 **** 0.06
11348 H 18.375403437372682 97.40021926804235 67.46744523546971 H 0.0 **** 0.06
11349 H 19.958804426855394 97.14357517294647 68.24117170789572 H 0.0 **** 0.06
11350 H 18.904378496704986 95.75332221936301 67.89069340971167 H 0.0 **** 0.06
11351 C 106.5806842993971 94.4768943603167 128.70005952860078 C 0.0 **** -0.24
11352 H 105.5959713465365 94.82971543358957 129.00667751491272 H 0.0 **** 0.06
11353 H 106.72584989351087 93.45514521410942 129.04933375094387 H 0.0 **** 0.06
11354 H 107.34656094081326 95.12123231847228 129.13108903688644 H 0.0 **** 0.06
11355 H 106.65269550783326 94.50365694402805 127.61241203041132 H 0.0 **** 0.06
11356 C 25.033885572679175 126.84395293463712 54.901360105145585 C 0.0 **** -0.24
11357 H 25.54429894562749 126.26236449951351 55.66993673588087 H 0.0 **** 0.06
11358 H 25.185014023359464 127.90721454526829 55.0908459520509 H 0.0 **** 0.06
11359 H 23.967608496588227 126.61823723620765 54.9236430473517 H 0.0 **** 0.06
11360 H 25.439460919333484 126.58654232051285 53.922798752720354 H 0.0 **** 0.06
11361 C 53.682126554269985 66.68595727908699 39.6426879557506 C 0.0 **** -0.24
11362 H 52.781666129934564 66.08368282619331 39.76399917442333 H 0.0 **** 0.06
11363 H 53.453215597093816 67.56147640266461 39.03504666604209 H 0.0 **** 0.06
11364 H 54.45241746340636 66.09239180144397 39.149739824511556 H 0.0 **** 0.06
11365 H 54.0396187008468 67.00488053438607 40.62124208004283 H 0.0 **** 0.06
11366 C 90.90138827988181 29.053661508260262 85.28838655964408 C 0.0 **** -0.24
11367 H 91.50310423237394 28.237575433279133 85.68734807283528 H 0.0 **** 0.06
11368 H 91.55215567674836 29.78351311004134 84.8072105898355 H 0.0 **** 0.06
11369 H 90.35561704091621 29.534090395191036 86.10163364434425 H 0.0 **** 0.06
11370 H 90.19336012313258 28.660612003147925 84.5587530114928 H 0.0 **** 0.06
11371 C 102.18825776223875 55.37207331854259 39.11455329429529 C 0.0 **** -0.24
11372 H 102.11096903569569 56.458412820332825 39.17000492347975 H 0.0 **** 0.06
11373 H 103.23091393137518 55.08912979656051 38.967740485816265 H 0.0 **** 0.06
11374 H 101.59046963087687 55.00777842937245 38.27934526051726 H 0.0 **** 0.06
11375 H 101.82128657552362 54.934179289674404 40.042903912674575 H 0.0 **** 0.06
11376 C 97.22348614203501 144.86167766584663 137.26681786999967 C 0.0 **** -0.24
11377 H 97.48104071828176 145.11954972162755 138.29323370361615 H 0.0 **** 0.06
11378 H 96.5405469660651 145.6103060506712 136.86475128658478 H 0.0 **** 0.06
11379 H 96.74411283593011 143.8830266893822 137.24731430992992 H 0.0 **** 0.06
11380 H 98.13000600019511 144.83435062571584 136.6606982820925 H 0.0 **** 0.06
11381 C 42.0584016185698 135.37535834368347 103.26644437879726 C 0.0 **** -0.24
11382 H 41.15891553904865 135.744028415924 102.77487545909615 H 0.0 **** 0.06
11383 H 42.69478157356798 134.8784438894372 102.5342029749397 H 0.0 **** 0.06
11384 H 41.78096422703561 134.66652377515314 104.04677697128795 H 0.0 **** 0.06
11385 H 42.598793701748974 136.2111386945507 103.71105826039607 H 0.0 **** 0.06
11386 C 47.070563407286215 84.2325549809383 47.35363404308964 C 0.0 **** -0.24
11387 H 47.46219890081289 83.51916511351081 48.07904527276746 H 0.0 **** 0.06
11388 H 47.52752381574078 85.20778205884555 47.51998368704291 H 0.0 **** 0.06
11389 H 45.989629108288 84.31207733926648 47.47030084722164 H 0.0 **** 0.06
11390 H 47.302916207211865 83.88838688876818 46.344871195912475 H 0.0 **** 0.06
11391 C 92.65875114724832 55.869286014933536 73.40292605699209 C 0.0 **** -0.24
11392 H 93.62756399744893 55.72764614062619 72.92528011376235 H 0.0 **** 0.06
11393 H 92.78359976052565 55.86840390990142 74.48596297322896 H 0.0 **** 0.06
11394 H 91.99006476919175 55.05813378073282 73.11291997828579 H 0.0 **** 0.06
11395 H 92.23365579972972 56.821572548854135 73.08729627564595 H 0.0 **** 0.06
11396 C 93.00342092284401 96.30834674289815 84.62932744694369 C 0.0 **** -0.24
11397 H 93.00490493367064 96.35226389879278 83.53989639927248 H 0.0 **** 0.06
11398 H 92.09145717665201 95.81809539679637 84.97120999239986 H 0.0 **** 0.06
11399 H 93.0455511637481 97.3198860884819 85.03345007718951 H 0.0 **** 0.06
11400 H 93.87102662014196 95.74394860360519 84.97056339815789 H 0.0 **** 0.06
11401 C 96.76692331358134 90.79370531990983 8.682741611264362 C 0.0 **** -0.24
11402 H 96.72360045424631 89.7780233836251 8.289937313184339 H 0.0 **** 0.06
11403 H 97.80828949913752 91.09498861715295 8.79664394920107 H 0.0 **** 0.06
11404 H 96.26969154309853 90.82958172697282 9.65123852753868 H 0.0 **** 0.06
11405 H 96.2657706065043 91.47102815785854 7.991290506396069 H 0.0 **** 0.06
11406 C 101.7338365887235 97.71458480125021 11.746531480889104 C 0.0 **** -0.24
11407 H 102.81357878367004 97.64192285690255 11.613979768281581 H 0.0 **** 0.06
11408 H 101.51258399889667 98.45071759334952 12.519140493099286 H 0.0 **** 0.06
11409 H 101.33837440903193 96.74427209655417 12.043509136926701 H 0.0 **** 0.06
11410 H 101.27307380442431 98.02397279262699 10.807950817787543 H 0.0 **** 0.06
11411 C 79.07566620703128 47.28571984390959 132.88456188846826 C 0.0 **** -0.24
11412 H 78.41213252215722 46.91769573176546 133.66636950396614 H 0.0 **** 0.06
11413 H 79.21797940043251 46.508635948748136 132.13308633798 H 0.0 **** 0.06
11414 H 80.03856567143652 47.55074696115942 133.31977802939497 H 0.0 **** 0.06
11415 H 78.63360752922688 48.166258809094785 132.4182099194648 H 0.0 **** 0.06
11416 C 40.52929421571545 47.107502958410834 88.43421654244088 C 0.0 **** -0.24
11417 H 39.68765669669057 46.66567192967071 88.96718324313478 H 0.0 **** 0.06
11418 H 40.651470284331765 48.14579559372109 88.74547910852615 H 0.0 **** 0.06
11419 H 40.340937818731334 47.069391937906204 87.3618573390608 H 0.0 **** 0.06
11420 H 41.43716966171179 46.5503565685097 88.66394233891255 H 0.0 **** 0.06
11421 C 130.24644637051458 139.22723748408157 58.44560469028622 C 0.0 **** -0.24
11422 H 130.10033490402148 138.58315216010524 59.312148045856276 H 0.0 **** 0.06
11423 H 129.28037762137967 139.4660236105626 58.00237653743014 H 0.0 **** 0.06
11424 H 130.86686049944385 138.71222708954085 57.711051377630184 H 0.0 **** 0.06
11425 H 130.7418992158003 140.1475654095676 58.75620398370344 H 0.0 **** 0.06
11426 C 26.397796219364267 107.9555298153115 49.690720053502474 C 0.0 **** -0.24
11427 H 25.776853533889344 107.08128708505895 49.88541908330703 H 0.0 **** 0.06
11428 H 26.257663571255968 108.68498557168932 50.48844245942621 H 0.0 **** 0.06
11429 H 26.112402624105734 108.39893085070814 48.737082865290375 H 0.0 **** 0.06
11430 H 27.445757396359895 107.65570905607895 49.65249905620573 H 0.0 **** 0.06
11431 C 105.11001205485434 75.93225866042383 108.5654945028897 C 0.0 **** -0.24
11432 H 104.6982947468068 75.99302353162456 107.55802371452437 H 0.0 **** 0.06
11433 H 106.1390569650407 76.29338954455707 108.55992587889587 H 0.0 **** 0.06
11434 H 105.08924962876236 74.89663706903515 108.9039877999224 H 0.0 **** 0.06
11435 H 104.5131833082045 76.54728326180887 109.23892532892658 H 0.0 **** 0.06
11436 C 95.60301479444138 121.27686098855368 79.49505337503155 C 0.0 **** -0.24
11437 H 95.68189645128761 121.64423423916061 80.51751873418166 H 0.0 **** 0.06
11438 H 95.73688520643846 120.19502521802043 79.48711701857334 H 0.0 **** 0.06
11439 H 96.37469561668337 121.74248960748166 78.88127195244226 H 0.0 **** 0.06
11440 H 94.62084263454877 121.52489589433965 79.09480675721909 H 0.0 **** 0.06
11441 C 36.873326854571914 143.88655535991396 81.42751806707349 C 0.0 **** -0.24
11442 H 37.31152885812118 143.60982287852937 82.3865905607953 H 0.0 **** 0.06
11443 H 35.918881043734046 144.38574057527254 81.59463841434189 H 0.0 **** 0.06
11444 H 36.71459772643978 142.9893731776826 80.82892796777281 H 0.0 **** 0.06
11445 H 37.5495916293401 144.55924136260074 80.90030996875953 H 0.0 **** 0.06
11446 C 15.996715132499219 4.885046198649093 40.427698752690844 C 0.0 **** -0.24
11447 H 16.76866189984213 4.286349247967195 40.90963233776847 H 0.0 **** 0.06
11448 H 16.019439912048938 4.710009927556484 39.35183825631424 H 0.0 **** 0.06
11449 H 16.17805539512051 5.941202002453252 40.62845867837018 H 0.0 **** 0.06
11450 H 15.020022908822625 4.603132351452359 40.82033822611265 H 0.0 **** 0.06
11451 C 55.91670351101811 93.91141443749723 77.28341327122412 C 0.0 **** -0.24
11452 H 55.99295911857081 92.83359824070357 77.1365859354153 H 0.0 **** 0.06
11453 H 54.9021784887444 94.23773706388607 77.05211591053245 H 0.0 **** 0.06
11454 H 56.62078274240707 94.4172270092476 76.62280221371435 H 0.0 **** 0.06
11455 H 56.150697719884704 94.1547667316143 78.31940324719288 H 0.0 **** 0.06
11456 C 134.3628147546081 118.18456457122555 11.186149202282309 C 0.0 **** -0.24
11457 H 133.4221821889387 118.6376922937293 10.872474916513823 H 0.0 **** 0.06
11458 H 134.7870452614816 117.6174004907801 10.357230444060889 H 0.0 **** 0.06
11459 H 134.18143534580915 117.51682372032182 12.02838525237442 H 0.0 **** 0.06
11460 H 135.05978592868732 118.96749648183042 11.48640532185388 H 0.0 **** 0.06
11461 C 73.20093545680176 42.81973475815323 44.997541239240235 C 0.0 **** -0.24
11462 H 73.15432818376375 43.396888861068135 44.07445415343895 H 0.0 **** 0.06
11463 H 72.29823284841002 42.21601051103664 45.09465437186461 H 0.0 **** 0.06
11464 H 73.27715659746119 43.49769674514374 45.8475687525478 H 0.0 **** 0.06
11465 H 74.07388253790562 42.16667504985048 44.97393297475466 H 0.0 **** 0.06
11466 C 86.53353190708933 140.25164467299933 92.00799393741018 C 0.0 **** -0.24
11467 H 87.42936859854288 140.13779865109865 91.39778365353693 H 0.0 **** 0.06
11468 H 86.59001215505205 139.5813939916907 92.86609121092289 H 0.0 **** 0.06
11469 H 85.65382235269189 140.00588826227914 91.41219377493151 H 0.0 **** 0.06
11470 H 86.46017103194049 141.2826885091951 92.35578660932322 H 0.0 **** 0.06
11471 C 15.681000600755567 22.28995632122357 91.71851285402929 C 0.0 **** -0.24
11472 H 15.294535726569706 21.328518181670518 91.3795873127806 H 0.0 **** 0.06
11473 H 16.770277672407673 22.255633904893685 91.74266523180306 H 0.0 **** 0.06
11474 H 15.300637486163367 22.50085763268043 92.71846009048649 H 0.0 **** 0.06
11475 H 15.357109799232035 23.073914830494452 91.0343924879528 H 0.0 **** 0.06
11476 C 16.892830709444894 120.68731866959966 60.42255346269397 C 0.0 **** -0.24
11477 H 17.086584789720433 121.45675247844586 61.16962230034838 H 0.0 **** 0.06
11478 H 15.850957885848771 120.37155385779185 60.48939333213761 H 0.0 **** 0.06
11479 H 17.544970002975646 119.83332515051661 60.60272632907069 H 0.0 **** 0.06
11480 H 17.087107627492486 121.0904891870208 59.428425236395384 H 0.0 **** 0.06
11481 C 61.20793272586285 53.18725504764245 120.92336860686662 C 0.0 **** -0.24
11482 H 61.704193771513175 52.26331360633699 120.62564204596391 H 0.0 **** 0.06
11483 H 61.55969766004445 53.48586272493907 121.91120959113191 H 0.0 **** 0.06
11484 H 60.13062389736173 53.02660616780054 120.95427959752423 H 0.0 **** 0.06
11485 H 61.437860617741165 53.9720039031526 120.20259173449988 H 0.0 **** 0.06
11486 C 16.83710168518465 89.96944353575724 143.8118683697909 C 0.0 **** -0.24
11487 H 17.715058369303904 90.54325930830962 144.1050463459424 H 0.0 **** 0.06
11488 H 16.715155110289032 89.12118652987644 144.48636228073102 H 0.0 **** 0.06
11489 H 16.963804865050378 89.60725197216259 142.7914917309403 H 0.0 **** 0.06
11490 H 15.953014130976584 90.60531673892544 143.865304246544 H 0.0 **** 0.06
11491 C 139.45725373477714 83.40877668746253 19.66285732008847 C 0.0 **** -0.24
11492 H 140.53218358315465 83.54587407802447 19.781318418142952 H 0.0 **** 0.06
11493 H 138.92816603674132 84.16037691399023 20.250083232503435 H 0.0 **** 0.06
11494 H 139.1772448863721 82.41356656491504 20.010273232612157 H 0.0 **** 0.06
11495 H 139.19129216970154 83.51454617158933 18.610950873268344 H 0.0 **** 0.06
11496 C 48.42751900780402 40.56325592825047 108.39570070110722 C 0.0 **** -0.24
11497 H 48.30104612683496 39.509079764724476 108.64299230554684 H 0.0 **** 0.06
11498 H 47.53226590395113 40.927693878118106 107.8914509840111 H 0.0 **** 0.06
11499 H 49.288663389653806 40.68013106253346 107.73740557430938 H 0.0 **** 0.06
11500 H 48.58879704475473 41.133282749128625 109.3102676384496 H 0.0 **** 0.06
11501 C 12.77140199123815 34.09479848854971 68.27863125410096 C 0.0 **** -0.24
11502 H 11.820789221322656 34.48034752857069 68.648144756725 H 0.0 **** 0.06
11503 H 12.647274845655268 33.745722046016226 67.25318012585763 H 0.0 **** 0.06
11504 H 13.096177601092698 33.26620193705122 68.90805119316411 H 0.0 **** 0.06
11505 H 13.51896575635704 34.88648424254387 68.30493528667154 H 0.0 **** 0.06
11506 C 112.53779973664956 16.410871429725034 81.18511646374111 C 0.0 **** -0.24
11507 H 112.52180247497091 16.509884993288864 80.09956023982272 H 0.0 **** 0.06
11508 H 113.18943624907081 17.17425232345161 81.60987563083165 H 0.0 **** 0.06
11509 H 112.91258506746709 15.422767079500346 81.45433700037017 H 0.0 **** 0.06
11510 H 111.52797878313282 16.53539500577577 81.575584644424 H 0.0 **** 0.06
11511 C 39.319731721568246 14.745426299953124 24.320245657932944 C 0.0 **** -0.24
11512 H 39.96045355643895 13.895823070045594 24.555379148075197 H 0.0 **** 0.06
11513 H 39.8643285801183 15.671699835723842 24.501222067657537 H 0.0 **** 0.06
11514 H 38.43131299392746 14.715757070569225 24.950087498198826 H 0.0 **** 0.06
11515 H 39.02355420202758 14.696147717045733 23.27178561955492 H 0.0 **** 0.06
11516 C 105.6441763493292 85.61529330452673 104.04421988969719 C 0.0 **** -0.24
11517 H 106.09339851426182 86.25847861485244 103.28622445145709 H 0.0 **** 0.06
11518 H 105.57506421233757 86.15906721616906 104.9861568965642 H 0.0 **** 0.06
11519 H 106.26334982766866 84.72810966903944 104.18029095812642 H 0.0 **** 0.06
11520 H 104.6467816138678 85.31615033918735 103.72175108242982 H 0.0 **** 0.06
11521 C 0.9149402356449023 60.638505716937914 80.74359993788221 C 0.0 **** -0.24
11522 H 1.2291040577547925 60.746006757835914 81.78180970326144 H 0.0 **** 0.06
11523 H 1.0505446933545564 61.58721253915695 80.22390126443071 H 0.0 **** 0.06
11524 H -0.1361667733214169 60.352329434889555 80.70867028351825 H 0.0 **** 0.06
11525 H 1.5177196807510605 59.86943369658729 80.26007942483761 H 0.0 **** 0.06
11526 C 140.47671318409775 6.837899173085191 7.883794869216388 C 0.0 **** -0.24
11527 H 141.06898745469846 7.412895988456739 8.596931482267223 H 0.0 **** 0.06
11528 H 140.84171261866697 5.81135700693909 7.853356682419928 H 0.0 **** 0.06
11529 H 140.56729598229472 7.285919716006447 6.893854829897691 H 0.0 **** 0.06
11530 H 139.4314442678123 6.843805052524374 8.191833639145386 H 0.0 **** 0.06
11531 C 91.89808248279667 135.56138206331386 120.38495867992486 C 0.0 **** -0.24
11532 H 92.44188035910133 136.25493598159446 119.74262638122974 H 0.0 **** 0.06
11533 H 90.8461112944994 135.84623517662513 120.41655375834318 H 0.0 **** 0.06
11534 H 92.31524353897481 135.59660518210447 121.39165521201556 H 0.0 **** 0.06
11535 H 91.99007584346913 134.550926947869 119.98727971757904 H 0.0 **** 0.06
11536 C 121.89464895253901 9.519029023365675 116.68451658050722 C 0.0 **** -0.24
11537 H 122.4733185019907 9.898081398610799 115.84215754421407 H 0.0 **** 0.06
11538 H 122.11333280623545 10.11319420474959 117.57263992328652 H 0.0 **** 0.06
11539 H 122.16060215805116 8.47845367020247 116.86941846382271 H 0.0 **** 0.06
11540 H 120.83090995793948 9.586529657396767 116.45474071847164 H 0.0 **** 0.06
11541 C 89.55366220617779 93.55194051698668 31.095343301004704 C 0.0 **** -0.24
11542 H 88.98089244389999 93.30063214769262 31.98892702384134 H 0.0 **** 0.06
11543 H 89.33869625061709 94.58136797055235 30.80503528478664 H 0.0 **** 0.06
11544 H 89.27541204572398 92.87903067736254 30.284524533983728 H 0.0 **** 0.06
11545 H 90.61752442773866 93.4482483899768 31.305374132302262 H 0.0 **** 0.06
11546 C 65.62681450170109 141.59366295969107 111.71557872305986 C 0.0 **** -0.24
11547 H 66.65294953194305 141.2507852000142 111.85125729200125 H 0.0 **** 0.06
11548 H 65.62413486772338 142.4957685606797 111.10236727819567 H 0.0 **** 0.06
11549 H 65.18659624855343 141.8140353908783 112.68817822258806 H 0.0 **** 0.06
11550 H 65.0459445711798 140.81590512054606 111.22046587172001 H 0.0 **** 0.06
11551 C 116.6290568374675 5.398918220209964 25.075407581616176 C 0.0 **** -0.24
11552 H 115.65335727436475 5.803941253524641 24.805541624882174 H 0.0 **** 0.06
11553 H 116.54316607734806 4.835142408674898 26.005090092173234 H 0.0 **** 0.06
11554 H 117.33772726888135 6.216147376680425 25.210298757486704 H 0.0 **** 0.06
11555 H 116.98079930422467 4.739560250949381 24.28205507967698 H 0.0 **** 0.06
11556 C 136.84677081524447 13.686361598679525 61.72164729574246 C 0.0 **** -0.24
11557 H 137.10734841472382 12.845488771005193 61.07973371003784 H 0.0 **** 0.06
11558 H 135.89387211918236 14.106726929878391 61.40149901578691 H 0.0 **** 0.06
11559 H 137.62240148956744 14.44950464097667 61.652722130818816 H 0.0 **** 0.06
11560 H 136.76561916398921 13.343454782970639 62.75376128152726 H 0.0 **** 0.06
11561 C 3.122791327844425 8.930140105512475 118.167175768646 C 0.0 **** -0.24
11562 H 3.4704287640311406 8.597722484556666 119.14572452572521 H 0.0 **** 0.06
11563 H 2.053940376562423 8.731189445765168 118.07501134563837 H 0.0 **** 0.06
11564 H 3.6614969701532516 8.391740133605303 117.38812599531362 H 0.0 **** 0.06
11565 H 3.303539772682484 10.00029825675717 118.06202128630109 H 0.0 **** 0.06
11566 C 70.96241369088753 121.83272695847103 0.0031687149423618166 C 0.0 **** -0.24
11567 H 70.10323903432084 121.32258378796706 0.43872554594649316 H 0.0 **** 0.06
11568 H 70.64367076227862 122.3933533937452 -0.8754590973320191 H 0.0 **** 0.06
11569 H 71.71293882497653 121.09827885251184 -0.28597107930455223 H 0.0 **** 0.06
11570 H 71.38729002736775 122.51791048533602 0.7364677761062701 H 0.0 **** 0.06
11571 C 40.45734168195285 117.2269756983928 26.355161946136832 C 0.0 **** -0.24
11572 H 40.47968889158611 118.21969287761036 25.904559969660383 H 0.0 **** 0.06
11573 H 39.57006320640947 117.13295430522888 26.98248151999495 H 0.0 **** 0.06
11574 H 41.35034430824631 117.08566010399554 26.964648733021782 H 0.0 **** 0.06
11575 H 40.42922777051222 116.4713733163455 25.570313216992723 H 0.0 **** 0.06
11576 C 119.73369040817944 95.67464561479255 34.72804164571306 C 0.0 **** -0.24
11577 H 120.16805285148699 94.67960042203697 34.62341230056427 H 0.0 **** 0.06
11578 H 120.23508365155986 96.20625165216893 35.536119416937 H 0.0 **** 0.06
11579 H 118.67113574294798 95.58430175267836 34.95436106514501 H 0.0 **** 0.06
11580 H 119.86095580384632 96.22530147962664 33.79562727155411 H 0.0 **** 0.06
11581 C 68.3434001051069 45.57226782360166 122.39529255888833 C 0.0 **** -0.24
11582 H 69.17130738065035 45.71331087196391 121.69979968421156 H 0.0 **** 0.06
11583 H 68.50803923453574 46.18305702541207 123.28400876033469 H 0.0 **** 0.06
11584 H 68.28463327432829 44.52186013634437 122.68234672617113 H 0.0 **** 0.06
11585 H 67.41085259648287 45.8704879889267 121.91561162478466 H 0.0 **** 0.06
11586 C 133.0708992727344 80.21148260224982 11.747162780920064 C 0.0 **** -0.24
11587 H 133.30314092128734 80.67261653351181 10.787606541425134 H 0.0 **** 0.06
11588 H 132.09131593036267 79.73615664157037 11.694213631112348 H 0.0 **** 0.06
11589 H 133.06413801981336 80.97530647563954 12.524630635397386 H 0.0 **** 0.06
11590 H 133.82612398423205 79.46127910967702 11.981556150339827 H 0.0 **** 0.06
11591 C 135.64412107470272 79.53490961626028 103.52802425573577 C 0.0 **** -0.24
11592 H 136.28514549818803 79.96211827473321 102.75687813059068 H 0.0 **** 0.06
11593 H 135.74356047102185 80.11653170060481 104.44564974900885 H 0.0 **** 0.06
11594 H 135.9420350679851 78.50421105541375 103.71717914451972 H 0.0 **** 0.06
11595 H 134.6080877314288 79.55882245972224 103.19295724576756 H 0.0 **** 0.06
11596 C 109.51242112078836 72.6594991361388 111.25041855779267 C 0.0 **** -0.24
11597 H 108.97897432662666 71.78620843064809 110.875320238514 H 0.0 **** 0.06
11598 H 108.98544082913418 73.063618463253 112.11472419561676 H 0.0 **** 0.06
11599 H 109.56428520565805 73.4168864076502 110.4687149676895 H 0.0 **** 0.06
11600 H 110.52181310163633 72.36966118561608 111.5420890588731 H 0.0 **** 0.06
11601 C 143.50438235217945 25.46242477170982 45.31453436015347 C 0.0 **** -0.24
11602 H 144.50350687108323 25.579013465702445 45.73355481170077 H 0.0 **** 0.06
11603 H 142.81914038027242 25.13096240209279 46.094950947700255 H 0.0 **** 0.06
11604 H 143.5302703768781 24.72144144758809 44.514474677950005 H 0.0 **** 0.06
11605 H 143.1646684517977 26.4172462634251 44.914195442633286 H 0.0 **** 0.06
11606 C 41.36129893130567 136.22912279260646 112.50677012332606 C 0.0 **** -0.24
11607 H 41.36309307132785 137.13531598689033 111.90081337244648 H 0.0 **** 0.06
11608 H 41.21507982559257 135.36174700914282 111.8626613270725 H 0.0 **** 0.06
11609 H 40.55383828630511 136.28102494898565 113.23718532943631 H 0.0 **** 0.06
11610 H 42.31540333069668 136.138777927015 113.02545256068446 H 0.0 **** 0.06
11611 C 12.509471435543688 37.01056561623528 60.83872711262063 C 0.0 **** -0.24
11612 H 13.235166019801689 37.05262985752023 60.02730933517415 H 0.0 **** 0.06
11613 H 12.120317697623229 38.011064689520026 61.03085968068683 H 0.0 **** 0.06
11614 H 12.993009946419562 36.63005550873115 61.73853568647746 H 0.0 **** 0.06
11615 H 11.689929682278326 36.349098685725096 60.5593730852043 H 0.0 **** 0.06
11616 C 113.46087801945359 74.89114775339252 58.602984113269486 C 0.0 **** -0.24
11617 H 114.20576038567165 74.17964295358532 58.24776299839495 H 0.0 **** 0.06
11618 H 112.49380603712328 74.6576057709251 58.15623040625732 H 0.0 **** 0.06
11619 H 113.7583307220007 75.90117849363165 58.31927874711519 H 0.0 **** 0.06
11620 H 113.38424285804135 74.82718267834771 59.68894611489917 H 0.0 **** 0.06
11621 C 112.42324648108642 49.93291384034171 95.43009453857782 C 0.0 **** -0.24
11622 H 112.8025307104488 50.49389709167846 94.57615358795438 H 0.0 **** 0.06
11623 H 112.69836217894563 48.882981555369014 95.32728175405028 H 0.0 **** 0.06
11624 H 111.33796317660703 50.02274696571925 95.46943951125459 H 0.0 **** 0.06
11625 H 112.85412040464955 50.33344023244652 96.34760593297219 H 0.0 **** 0.06
11626 C 68.57535826554874 66.39205232231728 50.147786734223416 C 0.0 **** -0.24
11627 H 69.60708725470059 66.56080235542527 50.459428678271536 H 0.0 **** 0.06
11628 H 68.48115384926885 65.38790497859043 49.73485148630867 H 0.0 **** 0.06
11629 H 68.30195026054255 67.12557737778616 49.38912873219644 H 0.0 **** 0.06
11630 H 67.91483293737589 66.49631196847452 51.008373800766634 H 0.0 **** 0.06
11631 C 141.90804098781692 45.03979239207109 139.86761091182967 C 0.0 **** -0.24
11632 H 141.53722195469217 45.09190121168456 138.84359829299515 H 0.0 **** 0.06
11633 H 142.79965566072116 44.41315212261617 139.89936258372103 H 0.0 **** 0.06
11634 H 141.13875982281303 44.61006306375907 140.51051771977066 H 0.0 **** 0.06
11635 H 142.1547718681233 46.04191584727971 140.21637055836217 H 0.0 **** 0.06
11636 C 77.30242672295226 141.89132530751465 29.804758869398967 C 0.0 **** -0.24
11637 H 77.83581026038735 140.94164015616371 29.847102885214476 H 0.0 **** 0.06
11638 H 77.79358969974554 142.552437975335 29.0906399194173 H 0.0 **** 0.06
11639 H 77.30622538863392 142.35524925685564 30.791349492488337 H 0.0 **** 0.06
11640 H 76.274081543042 141.7159738417044 29.489943180475883 H 0.0 **** 0.06
11641 C 124.74694319098691 98.4095887872246 101.8741039258457 C 0.0 **** -0.24
11642 H 125.81914198426787 98.21316648508432 101.87632371472111 H 0.0 **** 0.06
11643 H 124.24001636919925 97.66232753270678 102.48419792585202 H 0.0 **** 0.06
11644 H 124.37170931021711 98.35939391716092 100.85134004236156 H 0.0 **** 0.06
11645 H 124.55891774496902 99.40176868596662 102.28253789929775 H 0.0 **** 0.06
11646 C 1.3238896405257776 18.513742076350468 119.8230023529472 C 0.0 **** -0.24
11647 H 1.4837723527132312 19.036396077886764 118.8804228234575 H 0.0 **** 0.06
11648 H 1.2757575611986738 17.440921370698447 119.63994805858745 H 0.0 **** 0.06
11649 H 0.38665787894470327 18.849384306755894 120.26819429472208 H 0.0 **** 0.06
11650 H 2.1471295022312518 18.730904047257013 120.503588647239 H 0.0 **** 0.06
11651 C 9.891349027287873 36.83986455369404 71.796108365413 C 0.0 **** -0.24
11652 H 10.886971830559958 36.5678626265435 71.44622115100302 H 0.0 **** 0.06
11653 H 9.877178085611035 36.83819068959275 72.88646441813856 H 0.0 **** 0.06
11654 H 9.164770363255425 36.11825588376388 71.42265653604571 H 0.0 **** 0.06
11655 H 9.636662382363376 37.83419805693978 71.4301213877657 H 0.0 **** 0.06
11656 C 43.65813674061653 66.3845389887227 116.33157180614586 C 0.0 **** -0.24
11657 H 43.26507981961154 65.51651844649642 115.80204607267956 H 0.0 **** 0.06
11658 H 43.73711863567132 67.22459418277612 115.64150657123679 H 0.0 **** 0.06
11659 H 44.64383883964862 66.14927251553634 116.73318475602827 H 0.0 **** 0.06
11660 H 42.98517169117687 66.64592271310475 117.14865841063698 H 0.0 **** 0.06
11661 C 9.956193571307892 96.92200774141509 21.641659957287743 C 0.0 **** -0.24
11662 H 10.395595198294359 96.6482354220542 20.68172668632917 H 0.0 **** 0.06
11663 H 10.31423348677751 96.23985608070689 22.412261277218192 H 0.0 **** 0.06
11664 H 8.870392849706576 96.85870972438295 21.57493649282634 H 0.0 **** 0.06
11665 H 10.24647025214287 97.9416747788805 21.89504598954437 H 0.0 **** 0.06
11666 C 105.48626423290614 37.99601390108961 16.851383894996786 C 0.0 **** -0.24
11667 H 105.7836250894037 37.04655172540629 17.2967365647379 H 0.0 **** 0.06
11668 H 105.54094244381844 38.783024944669165 17.6041553396974 H 0.0 **** 0.06
11669 H 104.46460006304824 37.9180001244593 16.48003896495669 H 0.0 **** 0.06
11670 H 106.15590662387149 38.23579869918976 16.025844564617614 H 0.0 **** 0.06
11671 C 116.83461072148171 57.67219655598912 18.16045858119176 C 0.0 **** -0.24
11672 H 117.67140289618484 58.110085143472304 17.61707078231342 H 0.0 **** 0.06
11673 H 116.2368833823663 57.065128670467345 17.478394336158004 H 0.0 **** 0.06
11674 H 116.2158808886496 58.46728273526347 18.576546623068396 H 0.0 **** 0.06
11675 H 117.21365135507611 57.04544599043169 18.967848099697648 H 0.0 **** 0.06
11676 C 54.24167306614416 0.6300752376445189 86.13398787940741 C 0.0 **** -0.24
11677 H 53.44744559378577 1.2651469256516634 85.7407035045272 H 0.0 **** 0.06
11678 H 54.44362747236423 -0.17749227207360718 85.42981882146196 H 0.0 **** 0.06
11679 H 53.93081498644969 0.20894261120417923 87.09046866537247 H 0.0 **** 0.06
11680 H 55.14480421197706 1.2237036857961243 86.27496052626796 H 0.0 **** 0.06
11681 C 33.183431138083535 72.12301262277907 54.79199745079592 C 0.0 **** -0.24
11682 H 33.83846566055337 72.8320575893355 54.283877396941335 H 0.0 **** 0.06
11683 H 33.430915293808994 72.09711931209529 55.85369423893965 H 0.0 **** 0.06
11684 H 33.31981000746312 71.13042390170236 54.36192610628922 H 0.0 **** 0.06
11685 H 32.14647014461184 72.43349880466207 54.66671738869016 H 0.0 **** 0.06
11686 C 137.58977951380703 117.64351599442223 82.76076893322853 C 0.0 **** -0.24
11687 H 137.2725191226821 117.18268756158282 81.82582462793305 H 0.0 **** 0.06
11688 H 137.2582881207879 117.03051612569293 83.5996244437382 H 0.0 **** 0.06
11689 H 137.15096270491725 118.63903097826342 82.84207523156655 H 0.0 **** 0.06
11690 H 138.6766911492568 117.72383762099376 82.7748197735212 H 0.0 **** 0.06
11691 C 63.7042367984716 126.31660060914939 42.65565933012371 C 0.0 **** -0.24
11692 H 64.12924031405339 127.30586176306548 42.48005931639946 H 0.0 **** 0.06
11693 H 64.48613917382222 125.56381024882592 42.55702753134071 H 0.0 **** 0.06
11694 H 62.91857590571934 126.12501392597112 41.92472745475939 H 0.0 **** 0.06
11695 H 63.28400215183983 126.27569414212762 43.66042516703797 H 0.0 **** 0.06
11696 C 86.94176512891454 73.83337525328596 42.122179800916854 C 0.0 **** -0.24
11697 H 86.72402237478707 74.47571759466032 42.97627485810443 H 0.0 **** 0.06
11698 H 87.01499335257046 74.44209065622866 41.21999680539386 H 0.0 **** 0.06
11699 H 86.14270162442705 73.10204771257112 42.004623859632034 H 0.0 **** 0.06
11700 H 87.88685481908593 73.31631370423801 42.28859414676464 H 0.0 **** 0.06
11701 C 20.02457719559422 71.92038847925853 81.08975681615524 C 0.0 **** -0.24
11702 H 19.71236580463963 72.08922080866063 80.05996629565888 H 0.0 **** 0.06
11703 H 20.805906091602708 72.6344378580589 81.35426510255766 H 0.0 **** 0.06
11704 H 20.411008983689726 70.90608444186226 81.19062157026977 H 0.0 **** 0.06
11705 H 19.171600818686187 72.05254689022125 81.75509006635636 H 0.0 **** 0.06
11706 C 70.75721306032855 102.35491528576168 16.278192539791128 C 0.0 **** -0.24
11707 H 71.3782132629133 101.470260850856 16.416171307203854 H 0.0 **** 0.06
11708 H 70.08909607642912 102.20164230557197 15.430590041828076 H 0.0 **** 0.06
11709 H 71.3939735932685 103.21938495043196 16.087244462127508 H 0.0 **** 0.06
11710 H 70.16909936172908 102.52912084501241 17.17844835632126 H 0.0 **** 0.06
11711 C 27.862256053257113 89.39770894253293 46.412202483574504 C 0.0 **** -0.24
11712 H 28.407809938963737 90.34219991783534 46.40981052138483 H 0.0 **** 0.06
11713 H 27.02279680229563 89.46551999445207 47.1049179873545 H 0.0 **** 0.06
11714 H 28.52906958023334 88.59444779584042 46.72495338847057 H 0.0 **** 0.06
11715 H 27.48959821056752 89.19145045218204 45.408034401675025 H 0.0 **** 0.06
11716 C 126.88120179331881 113.70011166784904 90.42923429070116 C 0.0 **** -0.24
11717 H 126.35488913524892 114.64979061316167 90.52879238421953 H 0.0 **** 0.06
11718 H 127.28478303182615 113.6136358044527 89.41973289683457 H 0.0 **** 0.06
11719 H 126.18768035646306 112.88041556117376 90.6158868790436 H 0.0 **** 0.06
11720 H 127.69613213802151 113.65943958101037 91.15206152959422 H 0.0 **** 0.06
11721 C 90.10235204923906 109.07158919197275 67.26484229900632 C 0.0 **** -0.24
11722 H 90.23607099684887 108.1119101490587 67.76401789073716 H 0.0 **** 0.06
11723 H 90.39537951655296 109.87651546909939 67.9397515813464 H 0.0 **** 0.06
11724 H 89.05629984932888 109.19403723703124 66.98574711000145 H 0.0 **** 0.06
11725 H 90.72380923813289 109.1039149133631 66.36868159630947 H 0.0 **** 0.06
11726 C 55.055342123745774 126.03127310529436 55.031406315886784 C 0.0 **** -0.24
11727 H 55.72039210672061 125.4997134092496 54.35010333906001 H 0.0 **** 0.06
11728 H 55.63413140314351 126.4266503384926 55.86783074958305 H 0.0 **** 0.06
11729 H 54.29573146736085 125.3460479670737 55.40658496942552 H 0.0 **** 0.06
11730 H 54.574663224194964 126.85328757471035 54.502122033499234 H 0.0 **** 0.06
11731 C 60.40300724466218 66.42480480775762 123.92795555093399 C 0.0 **** -0.24
11732 H 61.20455035089785 66.63981455629215 124.63432679470141 H 0.0 **** 0.06
11733 H 59.532606167594835 67.03411788294451 124.17030326727615 H 0.0 **** 0.06
11734 H 60.13705833012848 65.36948989847022 123.9905376863744 H 0.0 **** 0.06
11735 H 60.73822937436236 66.655072993163 122.91610347046418 H 0.0 **** 0.06
11736 C 64.69811601007592 64.28985123359985 135.74801290056516 C 0.0 **** -0.24
11737 H 65.78008055701602 64.35619954149368 135.62922079700928 H 0.0 **** 0.06
11738 H 64.24186558208561 64.0520840464485 134.78687179488657 H 0.0 **** 0.06
11739 H 64.313599594067 65.24409882162105 136.10819558488038 H 0.0 **** 0.06
11740 H 64.46005697994033 63.50692717699721 136.4681376962841 H 0.0 **** 0.06
11741 C 28.816080371281743 25.082535754820626 17.534042145334638 C 0.0 **** -0.24
11742 H 29.714570445968434 25.43024886579434 18.04377940217603 H 0.0 **** 0.06
11743 H 28.886273538697928 25.3200620706358 16.471721975999117 H 0.0 **** 0.06
11744 H 27.942817202396768 25.577851438273626 17.95978356353919 H 0.0 **** 0.06
11745 H 28.720870263824196 24.004281024599237 17.66006851495058 H 0.0 **** 0.06
11746 C 122.11902505011963 80.97899101068789 123.64130394959236 C 0.0 **** -0.24
11747 H 121.99839123337003 80.79667167133445 122.5734818509644 H 0.0 **** 0.06
11748 H 121.15804047000572 80.86002363755377 124.140434432927 H 0.0 **** 0.06
11749 H 122.48685816350391 81.9930377125417 123.7972333406616 H 0.0 **** 0.06
11750 H 122.8334444657959 80.26675940592716 124.053501612263 H 0.0 **** 0.06
11751 C 120.07057492081941 45.63339187867149 51.273961031294675 C 0.0 **** -0.24
11752 H 120.7293687708609 45.28251040415341 52.06846324130109 H 0.0 **** 0.06
11753 H 119.770139305687 44.78972043972357 50.65316250400298 H 0.0 **** 0.06
11754 H 120.59863260982144 46.36584971027668 50.66253601913127 H 0.0 **** 0.06
11755 H 119.18685020643238 46.095299455491386 51.712532409339246 H 0.0 **** 0.06
11756 C 42.251630589377214 1.9074612112354998 100.57166250680916 C 0.0 **** -0.24
11757 H 42.70213726052404 0.9269694978973462 100.7261443483215 H 0.0 **** 0.06
11758 H 41.784311379094476 1.9419330927205465 99.58717463403872 H 0.0 **** 0.06
11759 H 43.02289743818241 2.6753037631453935 100.63464800449987 H 0.0 **** 0.06
11760 H 41.498128280895145 2.085858824664456 101.33847045962341 H 0.0 **** 0.06
11761 C 68.76994314548568 120.04502378184861 121.62822454765121 C 0.0 **** -0.24
11762 H 67.87020167313644 120.51952445344364 121.23651126858182 H 0.0 **** 0.06
11763 H 69.54244921979539 120.79850080459704 121.77951105152302 H 0.0 **** 0.06
11764 H 69.12401838811583 119.29726948283479 120.91799630022989 H 0.0 **** 0.06
11765 H 68.54121809721312 119.56362876339966 122.57915072475468 H 0.0 **** 0.06
11766 C 69.58133520114905 44.48967176982036 61.44069945068671 C 0.0 **** -0.24
11767 H 69.45155427671293 45.199358569060195 62.25773950655936 H 0.0 **** 0.06
11768 H 69.8522150018311 43.51505421892105 61.845859455175386 H 0.0 **** 0.06
11769 H 70.37172950395524 44.84036422228968 60.77750677776194 H 0.0 **** 0.06
11770 H 68.64894934604844 44.40494847998063 60.88133862373141 H 0.0 **** 0.06
11771 C 52.66338175708189 89.82078096782803 23.09406049226265 C 0.0 **** -0.24
11772 H 53.3451057372407 89.75007253173452 22.24684056608308 H 0.0 **** 0.06
11773 H 52.799061420529426 88.95544855859421 23.742831443631957 H 0.0 **** 0.06
11774 H 51.63621378194995 89.84686764907002 22.73204077453591 H 0.0 **** 0.06
11775 H 52.875136832223944 90.73171197059895 23.654241184025075 H 0.0 **** 0.06
11776 C 88.19081520490592 99.04488060865471 15.868553922184958 C 0.0 **** -0.24
11777 H 89.01580576149672 99.50497190869925 15.325222119878617 H 0.0 **** 0.06
11778 H 88.52454611566094 98.76873824473792 16.86908328014789 H 0.0 **** 0.06
11779 H 87.85688422054314 98.15361536793988 15.337213853632875 H 0.0 **** 0.06
11780 H 87.36550311838616 99.75336665062218 15.943296211351935 H 0.0 **** 0.06
11781 C 66.01586504354965 57.98411209046472 107.08982024601141 C 0.0 **** -0.24
11782 H 65.89425315102804 58.39247460650019 108.09218915039617 H 0.0 **** 0.06
11783 H 65.18545405341833 58.30783456327593 106.46158916908865 H 0.0 **** 0.06
11784 H 66.03082296984398 56.89569320876767 107.14025302453774 H 0.0 **** 0.06
11785 H 66.95411541710374 58.34054635649669 106.66399073480676 H 0.0 **** 0.06
11786 C 98.54656707945583 70.15339108123786 96.20702093728238 C 0.0 **** -0.24
11787 H 97.70332945842546 70.04409584422623 95.52530417356628 H 0.0 **** 0.06
11788 H 99.37202184766534 69.52816877459034 95.8655177538352 H 0.0 **** 0.06
11789 H 98.2474854728535 69.84552380647517 97.20833945621347 H 0.0 **** 0.06
11790 H 98.86493491775116 71.19581619212806 96.22698884784555 H 0.0 **** 0.06
11791 C 91.12298954581183 46.59346610067618 101.01968285372044 C 0.0 **** -0.24
11792 H 91.88718184615169 47.222601318964365 101.47652299991398 H 0.0 **** 0.06
11793 H 91.5372348908028 46.10083101434245 100.140118555669 H 0.0 **** 0.06
11794 H 90.27303960854616 47.20986361048162 100.7262290638522 H 0.0 **** 0.06
11795 H 90.7944532455955 45.84138897692449 101.73768413406822 H 0.0 **** 0.06
11796 C 128.433887833891 96.03850295567241 128.79211692107015 C 0.0 **** -0.24
11797 H 128.1915804160075 96.82564675032523 128.07743608267296 H 0.0 **** 0.06
11798 H 127.72902958030443 96.07258841533064 129.623159003479 H 0.0 **** 0.06
11799 H 129.44692837946332 96.18876410550251 129.16681864991475 H 0.0 **** 0.06
11800 H 128.3690245255671 95.06828328828823 128.29873828152202 H 0.0 **** 0.06
11801 C 119.39153472850278 72.32638455066336 92.2982988769922 C 0.0 **** -0.24
11802 H 119.73685258532807 71.29371208737399 92.25544994326053 H 0.0 **** 0.06
11803 H 120.18821024781919 72.9889746814988 91.95954919378089 H 0.0 **** 0.06
11804 H 119.12212630862278 72.57718566306607 93.32391028944328 H 0.0 **** 0.06
11805 H 118.52064664951398 72.44577335368447 91.65395568101168 H 0.0 **** 0.06
11806 C 138.99491337311198 103.95170260082688 25.181002522684025 C 0.0 **** -0.24
11807 H 139.3459581604219 103.02020069800483 24.737595673268153 H 0.0 **** 0.06
11808 H 137.94003842466344 103.85736228134539 25.437345285047087 H 0.0 **** 0.06
11809 H 139.12587415525 104.76554093971163 24.467288741327188 H 0.0 **** 0.06
11810 H 139.5708375046385 104.16363979230175 26.08259554507171 H 0.0 **** 0.06
11811 C 8.838364297124375 130.1806489472607 7.28938936703824 C 0.0 **** -0.24
11812 H 7.755900955073642 130.06237339812787 7.329287604012137 H 0.0 **** 0.06
11813 H 9.113484527875102 131.15011050441314 7.707149023066307 H 0.0 **** 0.06
11814 H 9.171586103451475 130.1234367984178 6.25326153509576 H 0.0 **** 0.06
11815 H 9.312442438765729 129.3880398645848 7.868227557784991 H 0.0 **** 0.06
11816 C 83.3870504620418 82.01853659202067 57.45209077562909 C 0.0 **** -0.24
11817 H 83.41666841530785 82.63806626179378 58.348014114801856 H 0.0 **** 0.06
11818 H 83.60860514815937 80.98400638141491 57.71756532370864 H 0.0 **** 0.06
11819 H 84.12748470093875 82.3768898369294 56.73775966550086 H 0.0 **** 0.06
11820 H 82.39410257870017 82.07409428699972 57.004903142169454 H 0.0 **** 0.06
11821 C 83.90368054620626 56.06514389933821 130.10840751249455 C 0.0 **** -0.24
11822 H 84.73597799246505 55.58923613965359 129.58992351215062 H 0.0 **** 0.06
11823 H 83.29882320221833 55.3031403832635 130.60047372188592 H 0.0 **** 0.06
11824 H 83.2906730522331 56.608709686661484 129.3898367636828 H 0.0 **** 0.06
11825 H 84.29096489673896 56.75946486957233 130.85482841731113 H 0.0 **** 0.06
11826 C 81.83400929958616 62.01374207217867 35.292546704374786 C 0.0 **** -0.24
11827 H 82.29306171979722 62.14350404131065 34.312318354987895 H 0.0 **** 0.06
11828 H 81.92949768329113 62.93676922168146 35.86367515802945 H 0.0 **** 0.06
11829 H 82.33440599627644 61.204078582653224 35.82308232644331 H 0.0 **** 0.06
11830 H 80.77856165859222 61.76915798981936 35.169494534623965 H 0.0 **** 0.06
11831 C 134.6250055258831 114.23397394013722 74.3658507480385 C 0.0 **** -0.24
11832 H 135.38144465778467 114.06550362525059 75.13254136492375 H 0.0 **** 0.06
11833 H 134.76424986237294 115.2244913436744 73.93044258152875 H 0.0 **** 0.06
11834 H 133.63345884448023 114.1697364988072 74.8137632596441 H 0.0 **** 0.06
11835 H 134.72217467704039 113.47761709303 73.58708482198406 H 0.0 **** 0.06
11836 C 129.0925554826764 114.99258926436134 96.79510444537664 C 0.0 **** -0.24
11837 H 129.76743033474898 115.52600136587041 97.46493157566965 H 0.0 **** 0.06
11838 H 129.66850286295627 114.52002960377955 95.99902787384087 H 0.0 **** 0.06
11839 H 128.38082514111676 115.69469179199551 96.3614561613058 H 0.0 **** 0.06
11840 H 128.55381457886926 114.22945070934718 97.3572029256884 H 0.0 **** 0.06
11841 C 122.52203299024315 68.54245560671517 132.01138210405065 C 0.0 **** -0.24
11842 H 123.15051940463896 68.51977141551784 132.90261901168714 H 0.0 **** 0.06
11843 H 121.62365289683699 69.12443507001664 132.21630646680205 H 0.0 **** 0.06
11844 H 122.24210786226384 67.52495041922937 131.73898716538642 H 0.0 **** 0.06
11845 H 123.0728104072726 69.00092269013412 131.19078048588335 H 0.0 **** 0.06
11846 C 70.3110874700547 94.24343414010238 51.467065804255384 C 0.0 **** -0.24
11847 H 70.7144149403303 95.2533663944297 51.54114475373004 H 0.0 **** 0.06
11848 H 71.04729568403307 93.59266252537506 50.99363815960146 H 0.0 **** 0.06
11849 H 69.40053775600546 94.25938195336836 50.86830226837708 H 0.0 **** 0.06
11850 H 70.08391444206212 93.86949774344667 52.46576091024413 H 0.0 **** 0.06
11851 C 66.2472492193736 116.13391174575246 64.33004054790709 C 0.0 **** -0.24
11852 H 65.36394241066029 116.0169874990771 64.95774723943268 H 0.0 **** 0.06
11853 H 65.9610643933228 116.04666737976082 63.2813863580873 H 0.0 **** 0.06
11854 H 66.97235796959112 115.3571121432234 64.57452492842887 H 0.0 **** 0.06
11855 H 66.69105026899203 117.11293634189984 64.50556343617612 H 0.0 **** 0.06
11856 C 21.88288250507145 22.344207335200437 140.37364533188506 C 0.0 **** -0.24
11857 H 20.905817628645252 22.80318516267304 140.22213135557823 H 0.0 **** 0.06
11858 H 22.657268422375466 22.99968986776856 139.9749424281914 H 0.0 **** 0.06
11859 H 21.917312764528276 21.38477610693662 139.85703310512565 H 0.0 **** 0.06
11860 H 22.049554287499802 22.18996412560668 141.439097530238 H 0.0 **** 0.06
11861 C 110.51109553378541 53.047944747431714 116.52715805765988 C 0.0 **** -0.24
11862 H 110.50010939698745 52.20462091838765 117.21702622089995 H 0.0 **** 0.06
11863 H 110.0586725976288 52.7493999429046 115.58115466933921 H 0.0 **** 0.06
11864 H 111.53968785282171 53.36365495813767 116.35439007674219 H 0.0 **** 0.06
11865 H 109.94369861467686 53.87415031147033 116.95574877709683 H 0.0 **** 0.06
11866 C 33.704265168793796 129.2745487972737 140.72970501302578 C 0.0 **** -0.24
11867 H 34.08930669809524 128.90453176399956 139.77872269200847 H 0.0 **** 0.06
11868 H 34.5337250160826 129.61332981175013 141.3500183684456 H 0.0 **** 0.06
11869 H 33.171133950746054 128.4731201144242 141.24187109829182 H 0.0 **** 0.06
11870 H 33.022723369001795 130.10495781843434 140.54578241910932 H 0.0 **** 0.06
11871 C 89.46718866705483 103.25727748115087 137.3666678953852 C 0.0 **** -0.24
11872 H 90.29484550930962 102.5483943188051 137.41661580885415 H 0.0 **** 0.06
11873 H 89.19739852333946 103.57192196742912 138.3750091278783 H 0.0 **** 0.06
11874 H 88.6095566618373 102.7799226460757 136.89287301165285 H 0.0 **** 0.06
11875 H 89.76900739296195 104.12648096493206 136.782441355963 H 0.0 **** 0.06
11876 C 126.43450624843322 49.345769824662455 79.2633455998978 C 0.0 **** -0.24
11877 H 125.7763793001711 48.487453846394175 79.39586151241929 H 0.0 **** 0.06
11878 H 127.4729733190309 49.01431461039351 79.27988344107374 H 0.0 **** 0.06
11879 H 126.2680849614924 50.059193015110964 80.07182893281865 H 0.0 **** 0.06
11880 H 126.22048367877048 49.82365672662483 78.30742753915646 H 0.0 **** 0.06
11881 C 40.297484918133144 65.6235825297428 34.67699997348672 C 0.0 **** -0.24
11882 H 41.26170554903571 65.40961071736155 35.13718091463452 H 0.0 **** 0.06
11883 H 40.40133978100243 66.4626655582875 33.988922402577636 H 0.0 **** 0.06
11884 H 39.57297400273654 65.87714258326828 35.45117317686664 H 0.0 **** 0.06
11885 H 39.952955523207116 64.74617948140707 34.13004452236178 H 0.0 **** 0.06
11886 C 134.55883293804283 33.74291782000125 50.43250424479416 C 0.0 **** -0.24
11887 H 135.5828592319502 34.06316451206973 50.23843689905118 H 0.0 **** 0.06
11888 H 134.3213834307728 33.9019030283888 51.484511537293315 H 0.0 **** 0.06
11889 H 134.45782080178301 32.6843627789944 50.192548666701754 H 0.0 **** 0.06
11890 H 133.87489482668892 34.32295144163854 49.813159800455864 H 0.0 **** 0.06
11891 C 138.33876303282028 94.82903167992141 16.328892933143543 C 0.0 **** -0.24
11892 H 138.3199625542147 95.20263938293249 17.35296214309527 H 0.0 **** 0.06
11893 H 138.67681584374571 95.61968408108194 15.660034266195446 H 0.0 **** 0.06
11894 H 137.33707163137794 94.51053444004113 16.03977227558233 H 0.0 **** 0.06
11895 H 139.02102171305972 93.98158005674918 16.264257616951383 H 0.0 **** 0.06
11896 C 60.1615196648678 29.45369499158187 91.53889556580505 C 0.0 **** -0.24
11897 H 59.11839829278941 29.166956479169485 91.6689251273744 H 0.0 **** 0.06
11898 H 60.42710609592601 29.389239656286435 90.48311845458777 H 0.0 **** 0.06
11899 H 60.79845315421113 28.7823332631354 92.11585926343025 H 0.0 **** 0.06
11900 H 60.30367544611079 30.47672373437598 91.88707916456744 H 0.0 **** 0.06
11901 C 47.007205167868165 65.71995858508994 46.234060259056974 C 0.0 **** -0.24
11902 H 46.770403871170316 65.55698206133594 45.181829880168976 H 0.0 **** 0.06
11903 H 46.33735286779955 66.4766222225748 46.64287922159353 H 0.0 **** 0.06
11904 H 48.039466181782984 66.05927906979556 46.32463475486345 H 0.0 **** 0.06
11905 H 46.88200430141309 64.78690947088722 46.78345719164281 H 0.0 **** 0.06
11906 C 76.23294042152955 33.06302352389889 94.48880636772415 C 0.0 **** -0.24
11907 H 76.39919507939975 32.10819328549513 93.99044456775144 H 0.0 **** 0.06
11908 H 75.47862845436663 33.63066470397888 93.94351666253662 H 0.0 **** 0.06
11909 H 77.16472783191509 33.62671906524207 94.51324789691806 H 0.0 **** 0.06
11910 H 75.88858640180125 32.88538200598333 95.5074484452095 H 0.0 **** 0.06
11911 C 33.127493107888355 5.467079312424858 72.59006135289081 C 0.0 **** -0.24
11912 H 33.21620777788637 5.89770531985198 71.59273751409546 H 0.0 **** 0.06
11913 H 33.089649395162155 6.268134542294433 73.32945931342034 H 0.0 **** 0.06
11914 H 33.989614028516854 4.830751044674628 72.78776495223549 H 0.0 **** 0.06
11915 H 32.21594397419767 4.87340278347807 72.64995461134163 H 0.0 **** 0.06
11916 C 122.15585941692001 1.3097306156860213 132.82693817972762 C 0.0 **** -0.24
11917 H 121.23343482267552 1.5820198110083652 132.3135354335254 H 0.0 **** 0.06
11918 H 122.45140644279132 0.30282543268847917 132.5339129943327 H 0.0 **** 0.06
11919 H 121.99517132242153 1.3422612955227748 133.90475031896094 H 0.0 **** 0.06
11920 H 122.94345966865404 2.013072845635861 132.55620130336635 H 0.0 **** 0.06
11921 C 119.12854070206842 23.39088615728059 75.65047213402313 C 0.0 **** -0.24
11922 H 120.01669210095528 23.00633340815753 76.15194115096536 H 0.0 **** 0.06
11923 H 118.25203633652202 23.20553634979177 76.27161821754879 H 0.0 **** 0.06
11924 H 119.00703822774719 22.886605535995614 74.69155914483207 H 0.0 **** 0.06
11925 H 119.23902311293463 24.46297401111363 75.4872355807345 H 0.0 **** 0.06
11926 C 46.97071750146097 145.38653707812767 86.23554879864243 C 0.0 **** -0.24
11927 H 47.894482084941075 145.7130006958467 85.75698173554204 H 0.0 **** 0.06
11928 H 47.072772230932756 144.3480885530708 86.55181833659348 H 0.0 **** 0.06
11929 H 46.145115362053474 145.47327623340811 85.5296236643154 H 0.0 **** 0.06
11930 H 46.772851634414536 146.0128804436976 87.10606648023447 H 0.0 **** 0.06
11931 C 127.22857957322815 126.94816164411954 121.22168268687429 C 0.0 **** -0.24
11932 H 127.65569094450571 126.27382040413416 120.47910562965544 H 0.0 **** 0.06
11933 H 126.35353371550438 126.48076068625397 121.67442216306304 H 0.0 **** 0.06
11934 H 126.93579123526763 127.8800480084705 120.73989787103815 H 0.0 **** 0.06
11935 H 127.97024609143065 127.15453818962786 121.99337264821926 H 0.0 **** 0.06
11936 C 56.82611741662613 89.34217235901704 82.01553849876477 C 0.0 **** -0.24
11937 H 57.12704198187997 89.51900074873032 80.98279601624121 H 0.0 **** 0.06
11938 H 55.740199892730374 89.401296128572 82.092222454198 H 0.0 **** 0.06
11939 H 57.277921912780215 90.09591738263035 82.65989554635118 H 0.0 **** 0.06
11940 H 57.15953563397659 88.35146363544558 82.32627868460922 H 0.0 **** 0.06
11941 C 60.34169472328182 137.9503716483352 23.447071673602892 C 0.0 **** -0.24
11942 H 61.37466438152349 137.66653928621992 23.648478659471266 H 0.0 **** 0.06
11943 H 59.763886161793906 137.06051272979346 23.19459132387226 H 0.0 **** 0.06
11944 H 60.314038144546146 138.6505646408421 22.61260492691619 H 0.0 **** 0.06
11945 H 59.915629883285945 138.42135553461222 24.33183364306356 H 0.0 **** 0.06
11946 C 15.071847160193357 143.91104088317576 5.90177379595324 C 0.0 **** -0.24
11947 H 14.031062010593274 143.92469185468497 5.57744550255509 H 0.0 **** 0.06
11948 H 15.219946979393058 144.66551861343117 6.674732862030279 H 0.0 **** 0.06
11949 H 15.719168409901158 144.1270920805735 5.052218649084651 H 0.0 **** 0.06
11950 H 15.31417521413104 142.92632602420105 6.301993332315259 H 0.0 **** 0.06
11951 C 50.704917349137034 85.9160296554198 53.92472465842921 C 0.0 **** -0.24
11952 H 51.66366795510872 86.40907086103064 54.08694846577151 H 0.0 **** 0.06
11953 H 50.68390675534967 85.48545465502801 52.92250975376267 H 0.0 **** 0.06
11954 H 49.900558805756816 86.64446495157071 54.02462574498158 H 0.0 **** 0.06
11955 H 50.57391086119259 85.12551158685037 54.66276213856207 H 0.0 **** 0.06
11956 C 7.638208842527831 125.77130792431211 23.27387191661532 C 0.0 **** -0.24
11957 H 7.851660072457179 125.50824996318408 24.310107892311798 H 0.0 **** 0.06
11958 H 7.422868806482086 126.8372155456484 23.206207563513082 H 0.0 **** 0.06
11959 H 6.775053240575232 125.20339941393814 22.92568625182777 H 0.0 **** 0.06
11960 H 8.503068710230139 125.53418827293939 22.653955314015647 H 0.0 **** 0.06
11961 C 97.96100863509594 34.183794462199955 49.82433959393211 C 0.0 **** -0.24
11962 H 97.67815125582007 35.16033710271901 50.21768687328199 H 0.0 **** 0.06
11963 H 97.290887160139 33.42341721890082 50.225943343196604 H 0.0 **** 0.06
11964 H 98.98580355683885 33.95684850250254 50.119056095780365 H 0.0 **** 0.06
11965 H 97.88867380257767 34.19513974802577 48.73757247094841 H 0.0 **** 0.06
11966 C 20.39983529928903 143.27183685177837 84.70787233642986 C 0.0 **** -0.24
11967 H 20.282021486415438 143.52931344129357 85.7608602970181 H 0.0 **** 0.06
11968 H 20.47139087377583 144.18476516065266 84.11736445151021 H 0.0 **** 0.06
11969 H 19.538897110997254 142.69113003654036 84.37775433179472 H 0.0 **** 0.06
11970 H 21.307487150214314 142.68166114800002 84.5776467779057 H 0.0 **** 0.06
11971 C 85.50715540083493 35.704274166454866 17.773035691539775 C 0.0 **** -0.24
11972 H 85.07021587649331 35.48640498302768 18.747902757168127 H 0.0 **** 0.06
11973 H 84.71330128729295 35.79695193468864 17.032436381367035 H 0.0 **** 0.06
11974 H 86.17843368599759 34.89371966039859 17.48758027209223 H 0.0 **** 0.06
11975 H 86.06641883079786 36.637768705309554 17.827028418828732 H 0.0 **** 0.06
11976 C 82.16716060103553 37.45853211441066 134.06141276862937 C 0.0 **** -0.24
11977 H 81.9767163307376 36.43626696728215 133.73447875581914 H 0.0 **** 0.06
11978 H 82.63095814258091 37.44358339715207 135.04833441042942 H 0.0 **** 0.06
11979 H 81.22560397536269 38.00511455856994 134.1115090280446 H 0.0 **** 0.06
11980 H 82.83530510608648 37.948826608580504 133.35270114293468 H 0.0 **** 0.06
11981 C 57.43145627980125 15.836103625287144 49.835853298915794 C 0.0 **** -0.24
11982 H 57.53150668411553 15.43209037523215 48.82784726734721 H 0.0 **** 0.06
11983 H 56.41581630003009 15.669516651914797 50.19476430153739 H 0.0 **** 0.06
11984 H 57.64026461003593 16.90600813845922 49.819874250803 H 0.0 **** 0.06
11985 H 58.138194107720736 15.33862478915929 50.499294557515526 H 0.0 **** 0.06
11986 C 68.82941738401814 41.56447991395714 114.95836785769465 C 0.0 **** -0.24
11987 H 69.62017573449845 42.22529273252951 115.31446415905857 H 0.0 **** 0.06
11988 H 68.13363784850156 41.359372648346266 115.77200644307702 H 0.0 **** 0.06
11989 H 69.26657910169763 40.62934491276229 114.60987393812907 H 0.0 **** 0.06
11990 H 68.29668790300735 42.04553668780795 114.13719818007756 H 0.0 **** 0.06
11991 C 19.54308257414627 32.414429664131944 108.00184428399383 C 0.0 **** -0.24
11992 H 19.094460175045754 31.863297196590736 107.17575481339917 H 0.0 **** 0.06
11993 H 20.23781257491882 33.156122713670015 107.60801369583506 H 0.0 **** 0.06
11994 H 20.07875872070261 31.722764492306055 108.65233814986259 H 0.0 **** 0.06
11995 H 18.759141007160906 32.91583042057613 108.57076419438998 H 0.0 **** 0.06
11996 C 58.09852735617608 102.22556505604271 43.65223353714791 C 0.0 **** -0.24
11997 H 57.97533117171838 103.30532016233788 43.5630116419203 H 0.0 **** 0.06
11998 H 57.4677312268922 101.85445205566155 44.45976822052887 H 0.0 **** 0.06
11999 H 59.1415729186985 101.9954897971523 43.86921100109791 H 0.0 **** 0.06
12000 H 57.80933890410073 101.74850654057305 42.71529802688789 H 0.0 **** 0.06
12001 C 3.4776358042730635 9.545778407989673 74.21141805537636 C 0.0 **** -0.24
12002 H 3.4574638018431756 10.461764236680239 73.62163003179623 H 0.0 **** 0.06
12003 H 2.455976366933953 9.232063818310309 74.42959486705922 H 0.0 **** 0.06
12004 H 4.010714434890531 9.725916429932795 75.14453451609624 H 0.0 **** 0.06
12005 H 3.985751288617962 8.76234322034449 73.64778171443709 H 0.0 **** 0.06
12006 C 104.49075364023807 33.711048328936215 32.396960624742746 C 0.0 **** -0.24
12007 H 103.40830584189536 33.81508942174281 32.32287886531 H 0.0 **** 0.06
12008 H 104.9291901351088 33.77558245423336 31.400558732254893 H 0.0 **** 0.06
12009 H 104.733914784072 32.74554392699525 32.838930919616374 H 0.0 **** 0.06
12010 H 104.89057083544054 34.508962066870424 33.022835036765116 H 0.0 **** 0.06
12011 C 47.86206554564987 145.05956677009559 66.06396328853543 C 0.0 **** -0.24
12012 H 47.5497574590336 145.97534831614934 65.56246284230753 H 0.0 **** 0.06
12013 H 48.946044762086984 144.96490381105872 66.00581824399211 H 0.0 **** 0.06
12014 H 47.395619922688525 144.20261940979879 65.57685585988955 H 0.0 **** 0.06
12015 H 47.55542270639157 145.09491239876465 67.10905549769294 H 0.0 **** 0.06
12016 C 98.44065075175052 57.01927401410251 116.55852458199483 C 0.0 **** -0.24
12017 H 98.58641642192 58.05104142012135 116.87856253390099 H 0.0 **** 0.06
12018 H 98.70452987214435 56.92505872191492 115.50495721210571 H 0.0 **** 0.06
12019 H 97.39614931667631 56.7402666515319 116.6976451904632 H 0.0 **** 0.06
12020 H 99.07435275260673 56.36195069972939 117.15251503638989 H 0.0 **** 0.06
12021 C 74.2465388074783 110.60875681750744 50.65528396002469 C 0.0 **** -0.24
12022 H 73.78857306125559 111.59637350617962 50.596092991925914 H 0.0 **** 0.06
12023 H 73.83882158944344 109.97280217738833 49.86883541815088 H 0.0 **** 0.06
12024 H 74.03205965672421 110.16725635061223 51.62844166657777 H 0.0 **** 0.06
12025 H 75.32520074115784 110.69983421354712 50.527302551868246 H 0.0 **** 0.06
12026 C 86.45963056327261 82.45315838052576 30.021558204061876 C 0.0 **** -0.24
12027 H 87.46422025647519 82.42138539258822 30.443245195570086 H 0.0 **** 0.06
12028 H 85.75283024467943 82.76630306229781 30.790172299088425 H 0.0 **** 0.06
12029 H 86.18663614826961 81.46222096935173 29.659360779932484 H 0.0 **** 0.06
12030 H 86.43516061461916 83.1617783651597 29.193455642442075 H 0.0 **** 0.06
12031 C 111.8302210224596 11.79954515016749 110.69436401981201 C 0.0 **** -0.24
12032 H 112.08169819231611 12.833893194991958 110.4617737945949 H 0.0 **** 0.06
12033 H 111.0909965209955 11.435354873065535 109.98016690322751 H 0.0 **** 0.06
12034 H 111.42041160939212 11.743234534233125 111.70266865750867 H 0.0 **** 0.06
12035 H 112.72888703871766 11.184820874458751 110.63286277219768 H 0.0 **** 0.06
12036 C 26.056703315943167 110.29541747113514 0.5747046684242889 C 0.0 **** -0.24
12037 H 25.3084089948766 110.56440888751034 -0.17052623841496484 H 0.0 **** 0.06
12038 H 25.984991484186423 109.22960862092599 0.793233469511307 H 0.0 **** 0.06
12039 H 25.883005396560975 110.86580842217931 1.4868417559042655 H 0.0 **** 0.06
12040 H 27.050748789172047 110.52126811612744 0.1880239164387092 H 0.0 **** 0.06
12041 C 132.15338565089263 56.44187371634318 74.20252294958708 C 0.0 **** -0.24
12042 H 132.41050174598362 56.3996885812645 75.26014459854866 H 0.0 **** 0.06
12043 H 132.80424920030092 57.15605511031194 73.69794839565284 H 0.0 **** 0.06
12044 H 131.11524976740296 56.75469670680826 74.0937776957892 H 0.0 **** 0.06
12045 H 132.28285799320804 55.45520305609895 73.75789747618121 H 0.0 **** 0.06
12046 C 92.74199481214089 109.437577792757 92.1811709234523 C 0.0 **** -0.24
12047 H 92.69417662734139 109.99153143968658 93.1185831409584 H 0.0 **** 0.06
12048 H 93.74549127058336 109.03430936108703 92.04775691758798 H 0.0 **** 0.06
12049 H 92.5057221879876 110.10625775600306 91.35298236818176 H 0.0 **** 0.06
12050 H 92.02110359620909 108.61989308906192 92.20437670684964 H 0.0 **** 0.06
12051 C 63.36811070472331 87.51407015288856 35.9695654005642 C 0.0 **** -0.24
12052 H 64.06977780681602 87.9227965601911 35.24355381135145 H 0.0 **** 0.06
12053 H 63.89899349920704 87.26554078552039 36.8884416170768 H 0.0 **** 0.06
12054 H 62.907610224528554 86.6141455623818 35.5619455598544 H 0.0 **** 0.06
12055 H 62.594990754107386 88.25246399415181 36.184046192805184 H 0.0 **** 0.06
12056 C 30.8694351704452 25.073241567694495 41.84906751955643 C 0.0 **** -0.24
12057 H 31.595992979221137 24.376721136210875 42.26696573251078 H 0.0 **** 0.06
12058 H 30.50467602205972 25.73334957257282 42.63581656931157 H 0.0 **** 0.06
12059 H 30.033444822215756 24.515036369138386 41.42603082077497 H 0.0 **** 0.06
12060 H 31.343008064896736 25.667073998817628 41.067432282820874 H 0.0 **** 0.06
12061 C 66.25600890625074 95.90876733273676 103.45162126403726 C 0.0 **** -0.24
12062 H 66.2232233732374 96.98403955110658 103.62619688312239 H 0.0 **** 0.06
12063 H 66.0375815127976 95.38310765288861 104.38245979753482 H 0.0 **** 0.06
12064 H 67.24886821810964 95.62809603935372 103.09960290642157 H 0.0 **** 0.06
12065 H 65.5135672370948 95.64085705814004 102.69936772758919 H 0.0 **** 0.06
12066 C 15.87043576305112 59.00461057031464 43.20143173700899 C 0.0 **** -0.24
12067 H 15.519698306066033 59.55445017709624 44.07536399010007 H 0.0 **** 0.06
12068 H 16.784978722304942 58.467877488818004 43.45349852825228 H 0.0 **** 0.06
12069 H 16.06991543283499 59.70240853307749 42.388620117233984 H 0.0 **** 0.06
12070 H 15.105648863362717 58.29319985804875 42.88982189590479 H 0.0 **** 0.06
12071 C 41.12997606839036 58.97381478440934 59.44347696277865 C 0.0 **** -0.24
12072 H 40.59197997741457 58.35156083096183 58.729448217604954 H 0.0 **** 0.06
12073 H 42.14299993474445 58.59074224163368 59.56855290606006 H 0.0 **** 0.06
12074 H 40.61260403484557 58.95669443115224 60.40308208974335 H 0.0 **** 0.06
12075 H 41.17240086932359 59.99867863609393 59.072434925890605 H 0.0 **** 0.06
12076 C 19.01380284796773 65.78368468940326 139.10363430948442 C 0.0 **** -0.24
12077 H 17.929977220161703 65.67667307013063 139.06657500446082 H 0.0 **** 0.06
12078 H 19.417971630421228 65.12355472583913 139.87219660207617 H 0.0 **** 0.06
12079 H 19.269175780780046 66.81654645502672 139.33875364018647 H 0.0 **** 0.06
12080 H 19.438180180350095 65.51598376893261 138.13557386289855 H 0.0 **** 0.06
12081 C 118.95526423912997 63.77026204865993 51.1413623855681 C 0.0 **** -0.24
12082 H 118.60554370995004 62.92198542322396 50.55311481323406 H 0.0 **** 0.06
12083 H 118.12937637588607 64.16552975453834 51.735192074390156 H 0.0 **** 0.06
12084 H 119.32627004463512 64.54808341728426 50.47296911515076 H 0.0 **** 0.06
12085 H 119.75814257204843 63.44683163834006 51.80383128892521 H 0.0 **** 0.06
12086 C 135.5587673348581 83.1298193558635 29.46260821098079 C 0.0 **** -0.24
12087 H 135.54651216527037 82.27845082353258 28.781618228208202 H 0.0 **** 0.06
12088 H 135.24643523183806 82.80660203864215 30.455537771504595 H 0.0 **** 0.06
12089 H 134.87528432987062 83.8969520791436 29.098113656195522 H 0.0 **** 0.06
12090 H 136.56907903889004 83.53804754630085 29.514550370619276 H 0.0 **** 0.06
12091 C 104.75689613861877 92.04700856255623 135.9149708026746 C 0.0 **** -0.24
12092 H 104.97521040084726 92.85246405211893 135.21370178308368 H 0.0 **** 0.06
12093 H 104.96914340865902 92.38236538099574 136.93080191803037 H 0.0 **** 0.06
12094 H 105.37851339829598 91.18337122312144 135.68045131783094 H 0.0 **** 0.06
12095 H 103.70523037883942 91.77085761227886 135.83575781329455 H 0.0 **** 0.06
12096 C 121.32779965507359 139.16451248093406 135.61713882136266 C 0.0 **** -0.24
12097 H 121.50973862764573 138.1394538504298 135.2958074239453 H 0.0 **** 0.06
12098 H 121.77560707346419 139.85474940229142 134.90247359379708 H 0.0 **** 0.06
12099 H 121.77299113302712 139.32045991829614 136.60030965417022 H 0.0 **** 0.06
12100 H 120.25449623564799 139.34306786355074 135.67176103961603 H 0.0 **** 0.06
12101 C 47.920577030618944 48.78094414361608 0.6606014531035953 C 0.0 **** -0.24
12102 H 47.55658616476194 49.44891821877795 1.4407771693175278 H 0.0 **** 0.06
12103 H 47.11125875226291 48.12447356467652 0.3384209575781938 H 0.0 **** 0.06
12104 H 48.742543996849406 48.18027356178801 1.0504232942029716 H 0.0 **** 0.06
12105 H 48.269715547468024 49.36990164549471 -0.186899111164621 H 0.0 **** 0.06
12106 C 125.97556101475911 14.595509924085754 131.26669110881875 C 0.0 **** -0.24
12107 H 126.26322148437725 15.349177722540041 131.99966054616885 H 0.0 **** 0.06
12108 H 126.86198076235519 14.048886507148104 130.94037087487348 H 0.0 **** 0.06
12109 H 125.51178593676704 15.08174063176726 130.40755297154632 H 0.0 **** 0.06
12110 H 125.26620264204075 13.901814815408883 131.7182170763374 H 0.0 **** 0.06
12111 C 101.30461189514511 80.46808802631283 120.38352357653297 C 0.0 **** -0.24
12112 H 101.97770842925667 79.73639180008843 119.93602093889798 H 0.0 **** 0.06
12113 H 100.83636331438709 81.05947233963285 119.59508596502916 H 0.0 **** 0.06
12114 H 101.86877048979471 81.12577237001878 121.0443875996673 H 0.0 **** 0.06
12115 H 100.53509777768107 79.95084839161464 120.955645969168 H 0.0 **** 0.06
12116 C 126.42183841975674 50.483837588011866 36.73185905880274 C 0.0 **** -0.24
12117 H 125.77298645746082 50.94667190812926 35.98835827475436 H 0.0 **** 0.06
12118 H 127.36527599656749 51.027868448248995 36.78025193617336 H 0.0 **** 0.06
12119 H 126.61266091181639 49.44796301150892 36.45176170780937 H 0.0 **** 0.06
12120 H 125.93531575897603 50.51269990399834 37.70620628167751 H 0.0 **** 0.06
12121 C 121.38194888095303 70.93042202418776 34.49082196796941 C 0.0 **** -0.24
12122 H 121.80752274456499 71.71207886008263 33.86294674436146 H 0.0 **** 0.06
12123 H 120.74040881296692 70.28826301869181 33.88639074719588 H 0.0 **** 0.06
12124 H 120.79410088128698 71.38468383470284 35.28895094835059 H 0.0 **** 0.06
12125 H 122.18595423938852 70.33570305525369 34.924791601680404 H 0.0 **** 0.06
12126 C 125.90910847164979 26.209433516382376 140.92965770676034 C 0.0 **** -0.24
12127 H 126.23487927398895 25.266944835921038 141.36949444661713 H 0.0 **** 0.06
12128 H 126.05787101788093 27.016415097589856 141.64794969534137 H 0.0 **** 0.06
12129 H 124.85238423221091 26.142777309453834 140.67120709309796 H 0.0 **** 0.06
12130 H 126.49130530376522 26.411246556429944 140.0309162466802 H 0.0 **** 0.06
12131 C 0.12439116571698605 50.17351569694051 74.36907280698317 C 0.0 **** -0.24
12132 H -0.7005384019064991 50.831560821873836 74.63875899143586 H 0.0 **** 0.06
12133 H 0.9094786430013642 50.246475571552025 75.12346695051231 H 0.0 **** 0.06
12134 H 0.5238521499409785 50.47079050051076 73.39947056469462 H 0.0 **** 0.06
12135 H -0.23300867367612454 49.145165385540054 74.31486126238127 H 0.0 **** 0.06
12136 C 22.03171229455529 139.6498982760788 43.744873612822886 C 0.0 **** -0.24
12137 H 22.01366001583193 140.65375819942352 44.17048530693353 H 0.0 **** 0.06
12138 H 22.530572751431407 139.6746897160582 42.77644421847465 H 0.0 **** 0.06
12139 H 21.010033825252663 139.29119581427332 43.61970353539755 H 0.0 **** 0.06
12140 H 22.571874066498907 138.98105062438344 44.41556058342037 H 0.0 **** 0.06
12141 C 86.47001103197694 94.89059576634247 25.11011390102064 C 0.0 **** -0.24
12142 H 86.1460649166972 95.92309239460673 24.98008884779557 H 0.0 **** 0.06
12143 H 87.51265663332072 94.79590843359573 24.806979690681118 H 0.0 **** 0.06
12144 H 85.85128667471751 94.23612600041302 24.49576919968078 H 0.0 **** 0.06
12145 H 86.36768763173104 94.60792929140328 26.157799196474514 H 0.0 **** 0.06
12146 C 76.80686761310564 48.512107244193686 142.61970714319187 C 0.0 **** -0.24
12147 H 76.71889931001657 48.31336360453588 143.68780846736604 H 0.0 **** 0.06
12148 H 77.86091233929669 48.55643521144208 142.34383455362016 H 0.0 **** 0.06
12149 H 76.32889083267511 49.46349241604412 142.386669936249 H 0.0 **** 0.06
12150 H 76.31823110032519 47.71321128323683 142.06048932405133 H 0.0 **** 0.06
12151 C 108.43752279062306 105.77754868473447 75.8456899905737 C 0.0 **** -0.24
12152 H 107.52693942826579 106.34231682044627 76.04827783820454 H 0.0 **** 0.06
12153 H 108.2122234367813 104.9593644372485 75.16067488652041 H 0.0 **** 0.06
12154 H 108.82926628445193 105.37353352173263 76.77914040488221 H 0.0 **** 0.06
12155 H 109.17995964617575 106.43585872234347 75.39409246535737 H 0.0 **** 0.06
12156 C 27.726678825411966 126.1495805761676 9.909507148689613 C 0.0 **** -0.24
12157 H 28.58223528469597 125.62260607366287 9.488248471650024 H 0.0 **** 0.06
12158 H 27.9936440758014 127.1923852595431 10.086343021702532 H 0.0 **** 0.06
12159 H 27.44040065970944 125.6830278703348 10.852157288404896 H 0.0 **** 0.06
12160 H 26.89159782040815 126.10219432981633 9.2110115302836 H 0.0 **** 0.06
12161 C 40.80173128040077 117.12922291071298 77.75283440120357 C 0.0 **** -0.24
12162 H 40.45132656832649 116.80536650068704 76.77315770421579 H 0.0 **** 0.06
12163 H 41.68008004983626 116.54750506258101 78.03455364317189 H 0.0 **** 0.06
12164 H 40.01290640420663 116.97544411058693 78.48938399536674 H 0.0 **** 0.06
12165 H 41.062061445670196 118.18643225669736 77.71529180497069 H 0.0 **** 0.06
12166 C 138.01399106410068 103.88858051224415 60.36408962398198 C 0.0 **** -0.24
12167 H 138.4650194459138 104.84765048217639 60.619409232130266 H 0.0 **** 0.06
12168 H 138.75703670006163 103.25455302142933 59.87991895280621 H 0.0 **** 0.06
12169 H 137.17548866509347 104.05001986638035 59.686947881561224 H 0.0 **** 0.06
12170 H 137.65834503931868 103.40183570488506 61.27307002068457 H 0.0 **** 0.06
12171 C 0.26164889013523407 16.379541099113368 54.80957654110564 C 0.0 **** -0.24
12172 H 0.42941753090428847 17.237334264738735 55.46181769294145 H 0.0 **** 0.06
12173 H 0.3521256172741687 16.691645633992096 53.76924264840697 H 0.0 **** 0.06
12174 H -0.7372501523376513 15.981489643172097 54.985305295430024 H 0.0 **** 0.06
12175 H 1.0021921194584138 15.609587872676968 55.02466169737846 H 0.0 **** 0.06
12176 C 41.374938654761095 40.95978270055113 53.126758941009584 C 0.0 **** -0.24
12177 H 40.31781624862578 41.207973883866714 53.22113185813231 H 0.0 **** 0.06
12178 H 41.49168963323906 39.87731402444905 53.080643388171254 H 0.0 **** 0.06
12179 H 41.917555835240094 41.34830238886528 53.98876819760271 H 0.0 **** 0.06
12180 H 41.77254625036757 41.40706504324882 52.2152060653968 H 0.0 **** 0.06
12181 C 131.16945101867617 95.56271065152264 49.34967372481225 C 0.0 **** -0.24
12182 H 131.95537995325353 95.77745864241858 48.62579466481702 H 0.0 **** 0.06
12183 H 130.19859836707948 95.80031175688357 48.91268422656623 H 0.0 **** 0.06
12184 H 131.32397915486294 96.1671606595825 50.24325647027774 H 0.0 **** 0.06
12185 H 131.2001755674274 94.50631417596519 49.61564433511137 H 0.0 **** 0.06
12186 C 65.27642124836444 77.0976205534352 126.9193321620901 C 0.0 **** -0.24
12187 H 65.3279723324336 76.83974460001826 125.8609071848715 H 0.0 **** 0.06
12188 H 64.92517406769599 78.12415463790484 127.02527129369135 H 0.0 **** 0.06
12189 H 66.26643231365034 77.00394254617936 127.36491760757517 H 0.0 **** 0.06
12190 H 64.58459352987956 76.42243594599142 127.42312285183857 H 0.0 **** 0.06
12191 C 89.46291450555168 103.7674321439976 91.12047665196023 C 0.0 **** -0.24
12192 H 88.78226488621485 104.61687780453556 91.06355511807126 H 0.0 **** 0.06
12193 H 90.44217244233857 104.0615938434991 90.74461015270388 H 0.0 **** 0.06
12194 H 89.07166390443969 102.94863427578457 90.51658434490672 H 0.0 **** 0.06
12195 H 89.5535023335444 103.44344144462376 92.15748715762302 H 0.0 **** 0.06
12196 C 75.20055150162389 123.1732718927423 114.91355421081015 C 0.0 **** -0.24
12197 H 74.88288059272263 122.48869885841059 115.6994313064629 H 0.0 **** 0.06
12198 H 76.1828898842973 123.5773753494123 115.1587431337186 H 0.0 **** 0.06
12199 H 74.48274643821345 123.99027663705104 114.83174288330785 H 0.0 **** 0.06
12200 H 75.25223185479099 122.63898782386813 113.96564466428735 H 0.0 **** 0.06
12201 C 26.651650901172616 34.83954079859939 60.158399626705844 C 0.0 **** -0.24
12202 H 26.39972774453048 35.8077919622809 60.5916158863335 H 0.0 **** 0.06
12203 H 27.605909791359124 34.49906403356502 60.561892493430406 H 0.0 **** 0.06
12204 H 26.72769578239246 34.9351929221468 59.07482277846994 H 0.0 **** 0.06
12205 H 25.873045140565353 34.117011485902225 60.405647306677736 H 0.0 **** 0.06
12206 C 53.89500140120421 129.66005963323636 106.54942363634757 C 0.0 **** -0.24
12207 H 52.835289446326215 129.6900352780043 106.29487117558716 H 0.0 **** 0.06
12208 H 54.277791315719696 130.67829615219185 106.62996706750931 H 0.0 **** 0.06
12209 H 54.440557517807235 129.12727752842034 105.77137762621948 H 0.0 **** 0.06
12210 H 54.02535069757565 129.14658956772658 107.50183238929759 H 0.0 **** 0.06
12211 C 45.139058001377975 87.55630584024443 46.738458046048066 C 0.0 **** -0.24
12212 H 45.587077675056946 87.82546200206963 47.694873342870665 H 0.0 **** 0.06
12213 H 45.59382210750404 86.63603532073034 46.37144484680485 H 0.0 **** 0.06
12214 H 45.30983541727734 88.3580876404008 46.01989425171672 H 0.0 **** 0.06
12215 H 44.06801942942886 87.40670057141301 46.86833283887486 H 0.0 **** 0.06
12216 C 39.651360889271174 137.46051184909638 133.12275367367874 C 0.0 **** -0.24
12217 H 38.97747747965761 136.60438744165583 133.0985663624772 H 0.0 **** 0.06
12218 H 40.150478144904085 137.50212761892487 134.09058163604078 H 0.0 **** 0.06
12219 H 39.080697871215435 138.37622992416357 132.96771487548546 H 0.0 **** 0.06
12220 H 40.39650784263943 137.3591628476272 132.3327730669726 H 0.0 **** 0.06
12221 C 17.141387505198708 111.47492107197101 119.6912202605239 C 0.0 **** -0.24
12222 H 16.831870220601758 111.71064383432937 120.7096169138684 H 0.0 **** 0.06
12223 H 16.32635361554938 110.96978970532493 119.17235035187038 H 0.0 **** 0.06
12224 H 18.01440467186245 110.82268298075294 119.71843063976804 H 0.0 **** 0.06
12225 H 17.392189351951657 112.39584759186377 119.16545544053805 H 0.0 **** 0.06
12226 C 142.30789470393418 95.51109117718927 142.25099587081047 C 0.0 **** -0.24
12227 H 142.86658427642166 96.23968576442604 141.66344094576448 H 0.0 **** 0.06
12228 H 141.8223884879952 94.80027052260469 141.5825068304118 H 0.0 **** 0.06
12229 H 141.55301606600833 96.02628887383379 142.84561213696244 H 0.0 **** 0.06
12230 H 142.98964481994253 94.9795520358596 142.91413972563134 H 0.0 **** 0.06
12231 C 95.60620268435864 94.9685597458232 131.65618421595138 C 0.0 **** -0.24
12232 H 94.71600975737134 95.39401418972318 131.1908294602474 H 0.0 **** 0.06
12233 H 95.81589480320102 93.99389899336995 131.2145321264516 H 0.0 **** 0.06
12234 H 95.43508888810207 94.85382314655482 132.72690570742344 H 0.0 **** 0.06
12235 H 96.45437418335507 95.6333421997374 131.491805675569 H 0.0 **** 0.06
12236 C 25.086890866092887 54.17157832739747 56.24048269253845 C 0.0 **** -0.24
12237 H 24.010541688375014 54.04507990035586 56.35605726843514 H 0.0 **** 0.06
12238 H 25.34409073160748 54.13899768996103 55.18114248042471 H 0.0 **** 0.06
12239 H 25.60560574839721 53.369122312221776 56.76522274432776 H 0.0 **** 0.06
12240 H 25.38599931449656 55.13236256521455 56.657871747705855 H 0.0 **** 0.06
12241 C 5.172175509175901 106.68443839803096 95.58921613408977 C 0.0 **** -0.24
12242 H 5.463562306584549 105.94983581222009 94.83773178767784 H 0.0 **** 0.06
12243 H 4.2740565804826645 107.20487382633395 95.25768299853083 H 0.0 **** 0.06
12244 H 5.9808216453916145 107.40283999574113 95.72558141253815 H 0.0 **** 0.06
12245 H 4.972711031629331 106.17823777571975 96.53383497707975 H 0.0 **** 0.06
12246 C 21.932099500041545 97.75633728881377 103.75454115758696 C 0.0 **** -0.24
12247 H 22.51521728560033 98.42448093539132 104.38868596208675 H 0.0 **** 0.06
12248 H 20.871224672125322 97.97428689764943 103.87587312133985 H 0.0 **** 0.06
12249 H 22.126805833862306 96.7224701294629 104.04206349785484 H 0.0 **** 0.06
12250 H 22.217226853460602 97.90323361112317 102.71249999405967 H 0.0 **** 0.06
12251 C 128.99029314411473 143.9087998782893 48.94050645929292 C 0.0 **** -0.24
12252 H 129.32384088388403 144.03954865413294 47.91093005546158 H 0.0 **** 0.06
12253 H 129.82277160465037 143.5514702974781 49.54812735978483 H 0.0 **** 0.06
12254 H 128.1795937155308 143.18104626222646 48.96972957022132 H 0.0 **** 0.06
12255 H 128.63697895022113 144.86270677873023 49.33236308059017 H 0.0 **** 0.06
12256 C 143.44067869201305 122.67882122674092 0.32166441803377666 C 0.0 **** -0.24
12257 H 143.1110902203566 123.55650634554155 -0.2345632141281726 H 0.0 **** 0.06
12258 H 144.49991982892504 122.77567025739634 0.5599528520079957 H 0.0 **** 0.06
12259 H 143.28456660046587 121.78561092556401 -0.28276857608585715 H 0.0 **** 0.06
12260 H 142.86615202390556 122.59778429383465 1.2450089193293934 H 0.0 **** 0.06
12261 C 136.4967274998166 55.37578147232939 128.81706206450062 C 0.0 **** -0.24
12262 H 137.24304998343703 56.13390254207721 129.05485209503016 H 0.0 **** 0.06
12263 H 136.41221662622513 55.276879552901946 127.734408259741 H 0.0 **** 0.06
12264 H 135.53235621211456 55.67214566818413 129.2306357744549 H 0.0 **** 0.06
12265 H 136.79792999643146 54.420762380237704 129.24743571841466 H 0.0 **** 0.06
12266 C 55.709142957857324 34.70534500412293 56.02198258331214 C 0.0 **** -0.24
12267 H 56.366247412157946 33.968513323742684 55.5596615666534 H 0.0 **** 0.06
12268 H 55.30266648576176 34.29929553263605 56.94752974100646 H 0.0 **** 0.06
12269 H 54.89273774925678 34.94158185675667 55.338251893660384 H 0.0 **** 0.06
12270 H 56.27468820136957 35.6115525547649 56.23877821751046 H 0.0 **** 0.06
12271 C 16.44243905779755 55.007137595062304 131.17636700541385 C 0.0 **** -0.24
12272 H 17.50583186709565 54.76939798023318 131.18121181106204 H 0.0 **** 0.06
12273 H 16.180345601235395 55.47905918353413 130.22967861433781 H 0.0 **** 0.06
12274 H 16.219161875931107 55.68883724786423 131.99726395056126 H 0.0 **** 0.06
12275 H 15.865036545030378 54.090083595764696 131.2978052279298 H 0.0 **** 0.06
12276 C 128.38118247382164 16.047310014381416 95.07977289908592 C 0.0 **** -0.24
12277 H 128.69180981103347 16.58177668577136 94.18163373316759 H 0.0 **** 0.06
12278 H 128.82901070694595 16.516976014274164 95.95559800897274 H 0.0 **** 0.06
12279 H 128.7076249725522 15.009084795208992 95.01635678915494 H 0.0 **** 0.06
12280 H 127.2948739934273 16.082260084031553 95.16399455096922 H 0.0 **** 0.06
12281 C 106.41777397958033 90.79236750590933 83.70272261688686 C 0.0 **** -0.24
12282 H 107.38255675539567 90.82660066612313 84.2094258928704 H 0.0 **** 0.06
12283 H 105.67248853487006 90.36032968442433 84.37096048397214 H 0.0 **** 0.06
12284 H 106.50047720402914 90.17950349078313 82.80582757402487 H 0.0 **** 0.06
12285 H 106.11690131698369 91.80322971899855 83.42646522075066 H 0.0 **** 0.06
12286 C 46.975809494348155 60.96756698227648 53.540182323274365 C 0.0 **** -0.24
12287 H 46.26911866786401 61.32155111532012 54.28964955548619 H 0.0 **** 0.06
12288 H 47.94606992034352 60.7961231089447 54.00830055666128 H 0.0 **** 0.06
12289 H 47.07793610352945 61.717238745083705 52.75565807761646 H 0.0 **** 0.06
12290 H 46.610953949129296 60.03587477494153 53.108132619256395 H 0.0 **** 0.06
12291 C 118.37717599707982 114.55514478001925 105.20780326695726 C 0.0 **** -0.24
12292 H 118.53410858729383 115.62655184124179 105.08501504865903 H 0.0 **** 0.06
12293 H 117.96245406998757 114.35908366865112 106.1963075093261 H 0.0 **** 0.06
12294 H 119.32839734417884 114.03391363852313 105.10151625357804 H 0.0 **** 0.06
12295 H 117.68197350372868 114.20130923060879 104.44558357813563 H 0.0 **** 0.06
12296 C 19.21791392136106 126.85430347027179 23.945034330785184 C 0.0 **** -0.24
12297 H 19.912436355391208 126.0414421182621 23.73439036553534 H 0.0 **** 0.06
12298 H 18.457217712328998 126.51010795350962 24.646008394022786 H 0.0 **** 0.06
12299 H 18.74016389887555 127.17249721748556 23.01843649433362 H 0.0 **** 0.06
12300 H 19.761007143475013 127.69205162308731 24.381043077712704 H 0.0 **** 0.06
12301 C 6.172191017265181 125.2340535988952 19.44201874795852 C 0.0 **** -0.24
12302 H 5.514724070339774 124.5288303948395 19.951007320977993 H 0.0 **** 0.06
12303 H 7.175839038153153 124.81327609048387 19.376088015026163 H 0.0 **** 0.06
12304 H 6.205487968499185 126.16833540533534 20.001484267140704 H 0.0 **** 0.06
12305 H 5.791318934520827 125.42467777281487 18.437804700291395 H 0.0 **** 0.06
12306 C 127.08570717645482 35.04412180009879 65.32771499002328 C 0.0 **** -0.24
12307 H 127.48119934893768 34.359089176952835 64.57734630006328 H 0.0 **** 0.06
12308 H 127.36712785967015 36.06570277441966 65.07162980575188 H 0.0 **** 0.06
12309 H 127.49652402720952 34.78760704541385 66.3046441735834 H 0.0 **** 0.06
12310 H 125.99884868568981 34.962628038489996 65.35756988078228 H 0.0 **** 0.06
12311 C 117.61814713579435 87.61292773560098 133.50232759818778 C 0.0 **** -0.24
12312 H 116.79742346572033 87.34136486622889 134.16645045916601 H 0.0 **** 0.06
12313 H 117.81704055413803 86.78983792405612 132.81593596828458 H 0.0 **** 0.06
12314 H 118.51128358873461 87.81766629076856 134.0934581574526 H 0.0 **** 0.06
12315 H 117.34636729808881 88.50347256303615 132.9346396780357 H 0.0 **** 0.06
12316 C 69.77847052914089 63.01857205310124 17.576746433985008 C 0.0 **** -0.24
12317 H 70.18074034189381 62.434188214030726 18.404371609383162 H 0.0 **** 0.06
12318 H 69.93148781792158 64.08011490532049 17.772852034943604 H 0.0 **** 0.06
12319 H 68.7111999994279 62.81815268176146 17.475812564240243 H 0.0 **** 0.06
12320 H 70.28847398391171 62.74196219946492 16.65498058447264 H 0.0 **** 0.06
12321 C 28.754121827076396 74.16901206348092 33.673917098159556 C 0.0 **** -0.24
12322 H 28.7724871924839 73.61258259173354 34.6109116789016 H 0.0 **** 0.06
12323 H 28.619760270977004 73.47602325521268 32.84298905819148 H 0.0 **** 0.06
12324 H 29.694817824683106 74.70545655075847 33.551834232779356 H 0.0 **** 0.06
12325 H 27.929472218905765 74.88149557998776 33.69080356814702 H 0.0 **** 0.06
12326 C 36.825365704290675 96.93076289412599 48.27315006219432 C 0.0 **** -0.24
12327 H 35.74074224990659 96.84024875483436 48.213375047876596 H 0.0 **** 0.06
12328 H 37.2674437202474 95.93981504206292 48.37305625663937 H 0.0 **** 0.06
12329 H 37.09179464176361 97.53699795712433 49.138718400988566 H 0.0 **** 0.06
12330 H 37.20076252134203 97.40642610218887 47.36631396839104 H 0.0 **** 0.06
12331 C 51.58089346438743 34.982867496696684 31.83040637457404 C 0.0 **** -0.24
12332 H 52.02065056503798 34.0234910693637 31.554028824801946 H 0.0 **** 0.06
12333 H 50.529832465903866 34.99736028752267 31.54183638706749 H 0.0 **** 0.06
12334 H 52.11028642870154 35.78480983092339 31.31536802502272 H 0.0 **** 0.06
12335 H 51.66519799067369 35.123984442320335 32.90679456805191 H 0.0 **** 0.06
12336 C 125.344416481471 101.35707589803161 52.080548472110735 C 0.0 **** -0.24
12337 H 125.83867917373033 101.79506273228208 52.94731475567724 H 0.0 **** 0.06
12338 H 124.3338262835 101.75772150052029 51.99735906889039 H 0.0 **** 0.06
12339 H 125.29822385495838 100.27490527462777 52.1973210090366 H 0.0 **** 0.06
12340 H 125.90749596226689 101.60140699670677 51.17917021710478 H 0.0 **** 0.06
12341 C 7.150428222923836 16.101267286984154 60.23559422227342 C 0.0 **** -0.24
12342 H 6.95070265445338 16.92842746047637 60.91750087560327 H 0.0 **** 0.06
12343 H 6.348030291400335 16.037139903714603 59.499200151409056 H 0.0 **** 0.06
12344 H 7.201197086841148 15.170115163473383 60.79945512543061 H 0.0 **** 0.06
12345 H 8.098643191250403 16.27136234102693 59.726710252194806 H 0.0 **** 0.06
12346 C 105.94478464425056 26.438910124124476 37.6922486735216 C 0.0 **** -0.24
12347 H 105.34143074168897 25.54498317183726 37.53197515606279 H 0.0 **** 0.06
12348 H 106.63952358985107 26.26610426155065 38.514135420120766 H 0.0 **** 0.06
12349 H 105.29317203282694 27.27733783670496 37.93683779930361 H 0.0 **** 0.06
12350 H 106.50468195456044 26.66587916265496 36.78428391068138 H 0.0 **** 0.06
12351 C 28.522887856277322 74.60384051571748 60.33175541886986 C 0.0 **** -0.24
12352 H 28.348702923477703 75.48491682245947 59.71329192574977 H 0.0 **** 0.06
12353 H 28.17399442195145 74.79716643888258 61.34586405694034 H 0.0 **** 0.06
12354 H 29.58960650311238 74.37838165066245 60.349519592482025 H 0.0 **** 0.06
12355 H 27.979261808313623 73.75620524742726 59.914840491602675 H 0.0 **** 0.06
12356 C 133.37037416996927 92.65078993350275 4.968184186742349 C 0.0 **** -0.24
12357 H 133.04299606276987 93.6745555169156 4.78289369264391 H 0.0 **** 0.06
12358 H 133.46036481975221 92.48814698215764 6.042578380441938 H 0.0 **** 0.06
12359 H 134.33805204070802 92.48734903626124 4.493424746797217 H 0.0 **** 0.06
12360 H 132.63986773472928 91.95574586289601 4.554838131199801 H 0.0 **** 0.06
12361 C 51.4307323860821 8.119567197204702 12.087062135381153 C 0.0 **** -0.24
12362 H 50.51153107756471 8.008016895750387 12.66324304098103 H 0.0 **** 0.06
12363 H 52.286310602520345 8.099835832876806 12.762456468546993 H 0.0 **** 0.06
12364 H 51.41017438986685 9.068821306551598 11.552258549281973 H 0.0 **** 0.06
12365 H 51.51292329871252 7.300932257057809 11.372435405147648 H 0.0 **** 0.06
12366 C 88.4341575576384 63.982865083139274 34.517193338368465 C 0.0 **** -0.24
12367 H 89.1079055027423 63.544000007584486 33.779782906579804 H 0.0 **** 0.06
12368 H 88.00811581289223 63.191589897104365 35.13480401705714 H 0.0 **** 0.06
12369 H 87.63404114625324 64.51608137890818 34.005289110162785 H 0.0 **** 0.06
12370 H 88.98983953029635 64.67682028759518 35.147321568172885 H 0.0 **** 0.06
12371 C 14.132789425412184 143.28259603318122 15.313420503409787 C 0.0 **** -0.24
12372 H 14.76465837889372 143.4930744897334 14.45115065224141 H 0.0 **** 0.06
12373 H 13.714861046378303 144.2153873456343 15.694398472200419 H 0.0 **** 0.06
12374 H 14.72844464376206 142.807047357464 16.09288713678106 H 0.0 **** 0.06
12375 H 13.323449791266341 142.61551589506004 15.016834365102028 H 0.0 **** 0.06
12376 C 41.55994440732947 23.53315976853156 88.02531129377877 C 0.0 **** -0.24
12377 H 41.746570530959815 22.49877516949269 88.31383353613472 H 0.0 **** 0.06
12378 H 41.68920748689685 24.18144159571804 88.89312504773977 H 0.0 **** 0.06
12379 H 40.54095178435835 23.62695091358401 87.65026044534005 H 0.0 **** 0.06
12380 H 42.262518564406534 23.825691106472846 87.24531908649328 H 0.0 **** 0.06
12381 C 68.07708944731795 131.3908851998737 56.720560692960476 C 0.0 **** -0.24
12382 H 68.09177970106148 131.71917842877954 57.76001279095985 H 0.0 **** 0.06
12383 H 67.1304311865272 130.89398299469977 56.50941095277861 H 0.0 **** 0.06
12384 H 68.8990667737576 130.6973360780108 56.54683466850901 H 0.0 **** 0.06
12385 H 68.18734617971276 132.25602246634918 56.06575162463767 H 0.0 **** 0.06
12386 C 12.526100542345432 58.427304041243985 14.910392960322078 C 0.0 **** -0.24
12387 H 12.042170735789341 58.32729554290225 15.881841945239572 H 0.0 **** 0.06
12388 H 12.079203889533403 57.72362254924013 14.2081831407368 H 0.0 **** 0.06
12389 H 13.590882649143566 58.216008792673165 15.011087045413248 H 0.0 **** 0.06
12390 H 12.391241453114787 59.444321602678144 14.540691391810292 H 0.0 **** 0.06
12391 C 19.571869047363215 82.8393319951668 110.87685975584253 C 0.0 **** -0.24
12392 H 18.736732854257525 82.58362061220333 110.22338274679583 H 0.0 **** 0.06
12393 H 19.290206457826876 83.67854616751383 111.51300648695855 H 0.0 **** 0.06
12394 H 20.43498916399772 83.11451744129627 110.27055740567852 H 0.0 **** 0.06
12395 H 19.822948170877687 81.97930959773524 111.49758323743072 H 0.0 **** 0.06
12396 C 107.33126332686128 12.31504572545984 136.5804193496881 C 0.0 **** -0.24
12397 H 106.85075166405089 13.018476300213365 135.90004968034964 H 0.0 **** 0.06
12398 H 107.82540901626807 11.532028682904723 136.00349532175585 H 0.0 **** 0.06
12399 H 106.57981564182602 11.868741520745175 137.23110037182192 H 0.0 **** 0.06
12400 H 108.06909125976641 12.841630544046865 137.18544517621308 H 0.0 **** 0.06
12401 C 60.478889273311296 32.684091621419384 20.31553205513984 C 0.0 **** -0.24
12402 H 61.17611889143731 32.80815710004808 19.487165290939515 H 0.0 **** 0.06
12403 H 60.982522491305886 32.92436929702626 21.25357483487352 H 0.0 **** 0.06
12404 H 60.12894246827369 31.652586195759426 20.344885982844318 H 0.0 **** 0.06
12405 H 59.62926754862643 33.35348942497686 20.178027746250933 H 0.0 **** 0.06
12406 C 129.46438216255615 143.6059921588452 103.28728194225786 C 0.0 **** -0.24
12407 H 129.32131988611638 144.2520592303507 102.42108772431298 H 0.0 **** 0.06
12408 H 128.8893419994375 143.99467170098384 104.12836336934252 H 0.0 **** 0.06
12409 H 130.5215467402662 143.58063548312936 103.55082885144998 H 0.0 **** 0.06
12410 H 129.12395071946904 142.5983091797335 103.04838791741201 H 0.0 **** 0.06
12411 C 5.611250577831356 89.69701869059051 34.73369565396811 C 0.0 **** -0.24
12412 H 6.61915956765597 90.08743772978066 34.59457944639939 H 0.0 **** 0.06
12413 H 5.434862177638593 88.88661043379618 34.02642379233188 H 0.0 **** 0.06
12414 H 4.887245745127217 90.4935969532471 34.56192261911107 H 0.0 **** 0.06
12415 H 5.504251190354324 89.32185219220763 35.75101422933042 H 0.0 **** 0.06
12416 C 51.561115572338906 16.679395153755678 138.1585770837688 C 0.0 **** -0.24
12417 H 50.68543145933694 16.51126596681263 137.53184205383485 H 0.0 **** 0.06
12418 H 51.88108462170521 15.73449086509936 138.59867778196937 H 0.0 **** 0.06
12419 H 51.30907505005186 17.38355245613471 138.9522502006433 H 0.0 **** 0.06
12420 H 52.368195662228715 17.08981607424309 137.55193527726234 H 0.0 **** 0.06
12421 C 50.41339051142889 0.4196320302295078 145.13129685829722 C 0.0 **** -0.24
12422 H 51.13495014467263 0.9055080368250685 145.78685618248298 H 0.0 **** 0.06
12423 H 50.580685759568425 0.7440497403887605 144.1034683638453 H 0.0 **** 0.06
12424 H 49.40366310196242 0.6915351714700932 145.43749956754235 H 0.0 **** 0.06
12425 H 50.53432603491301 -0.6621600150861866 145.19494827887036 H 0.0 **** 0.06
12426 C 75.00737969046752 0.45265427971662575 92.32207982119006 C 0.0 **** -0.24
12427 H 74.49794278489382 0.4928842226485415 91.36009207688387 H 0.0 **** 0.06
12428 H 74.87832558020571 1.4026089376898483 92.84145840403478 H 0.0 **** 0.06
12429 H 76.06947900428182 0.2654653112075209 92.16318600585764 H 0.0 **** 0.06
12430 H 74.5828952598369 -0.3518130854720596 92.92384072279694 H 0.0 **** 0.06
12431 C 120.86829626349997 109.24845130685883 68.46002963847926 C 0.0 **** -0.24
12432 H 121.23326986641969 110.09379522775463 67.8766448400169 H 0.0 **** 0.06
12433 H 120.2929681838922 109.61502358348376 69.31116496132401 H 0.0 **** 0.06
12434 H 121.71554116791317 108.66374623921975 68.81950145675364 H 0.0 **** 0.06
12435 H 120.23323105244044 108.62231811433331 67.83351923232883 H 0.0 **** 0.06
12436 C 88.79487512504784 48.699475952880505 118.44874551250162 C 0.0 **** -0.24
12437 H 88.31994971225441 48.607930702454325 119.4258669184572 H 0.0 **** 0.06
12438 H 88.06062874279837 48.50271572587377 117.66826007954914 H 0.0 **** 0.06
12439 H 89.60970221083986 47.97937587815517 118.37207341473517 H 0.0 **** 0.06
12440 H 89.19054991026752 49.70841927626145 118.33049683942222 H 0.0 **** 0.06
12441 C 74.71125720174955 84.7002429107341 133.1107235045183 C 0.0 **** -0.24
12442 H 75.29730129519284 84.86979383425542 132.20741973307403 H 0.0 **** 0.06
12443 H 73.68321972016125 85.0223174666557 132.94241471372797 H 0.0 **** 0.06
12444 H 75.14076504387145 85.27078272828197 133.9343139579229 H 0.0 **** 0.06
12445 H 74.72431291240662 83.63889738618289 133.3586914920066 H 0.0 **** 0.06
12446 C 85.270254892019 94.54891245646718 99.83343530255767 C 0.0 **** -0.24
12447 H 84.19306914342401 94.68269839562427 99.7364762325863 H 0.0 **** 0.06
12448 H 85.48386769674795 93.5209085071399 100.12571485233669 H 0.0 **** 0.06
12449 H 85.65304134188604 95.2302558274344 100.59385208284546 H 0.0 **** 0.06
12450 H 85.75034666493774 94.76265646294937 98.87857076837527 H 0.0 **** 0.06
12451 C 127.1956792977848 124.89532691525234 109.51250270904295 C 0.0 **** -0.24
12452 H 126.59634275930487 125.53846610396207 110.15776129407816 H 0.0 **** 0.06
12453 H 128.23891030476943 125.20594508958654 109.55880888912539 H 0.0 **** 0.06
12454 H 126.83667022025317 124.97401961664028 108.48673577576453 H 0.0 **** 0.06
12455 H 127.10896343003108 123.86243293418497 109.84943485399457 H 0.0 **** 0.06
12456 C 76.21291140422247 99.32981251532522 42.188510376529706 C 0.0 **** -0.24
12457 H 76.62160880478356 100.31662772411596 41.97410650923803 H 0.0 **** 0.06
12458 H 76.16464408373233 99.18327604776707 43.26782926053568 H 0.0 **** 0.06
12459 H 76.85475596622832 98.5669238328205 41.746444353382316 H 0.0 **** 0.06
12460 H 75.21125989716796 99.25152034286006 41.76476808518899 H 0.0 **** 0.06
12461 C 44.266513274653505 127.37930403875094 13.102714356485556 C 0.0 **** -0.24
12462 H 44.51580978184988 126.81361226465954 12.205298099191403 H 0.0 **** 0.06
12463 H 44.5826117944039 126.8215165874139 13.984037093660753 H 0.0 **** 0.06
12464 H 43.18950528576876 127.5417777342022 13.141662733099366 H 0.0 **** 0.06
12465 H 44.77833618653084 128.34163700670348 13.07876681499981 H 0.0 **** 0.06
12466 C 132.41154929206198 110.05869568805086 48.211859707847594 C 0.0 **** -0.24
12467 H 131.76889823652309 110.72349671562903 47.635275732418876 H 0.0 **** 0.06
12468 H 133.29348721894883 109.80490723265366 47.62226842111406 H 0.0 **** 0.06
12469 H 131.86477885777572 109.1487683192522 48.45914935796782 H 0.0 **** 0.06
12470 H 132.72003147233792 110.5575996950155 49.130693448140306 H 0.0 **** 0.06
12471 C 60.53499237124825 137.86607909653395 133.5020060688336 C 0.0 **** -0.24
12472 H 60.16231448317552 137.59620925973474 132.51429744594387 H 0.0 **** 0.06
12473 H 60.239584311414575 138.8889472979222 133.7356823800018 H 0.0 **** 0.06
12474 H 61.62272998243233 137.78942546716604 133.5131439998677 H 0.0 **** 0.06
12475 H 60.11635927820427 137.18720849647127 134.2456639093671 H 0.0 **** 0.06
12476 C 11.909013119952135 64.27843273406702 120.51124518334856 C 0.0 **** -0.24
12477 H 12.99677156345632 64.22361618809592 120.47375397616898 H 0.0 **** 0.06
12478 H 11.608902049008691 65.12905506950146 121.1232491760696 H 0.0 **** 0.06
12479 H 11.513529664294055 63.359923030170705 120.94647698062269 H 0.0 **** 0.06
12480 H 11.516183256771086 64.39878215553881 119.50138596833025 H 0.0 **** 0.06
12481 C 100.14868346445257 62.62653137222871 29.42173762726634 C 0.0 **** -0.24
12482 H 99.12087745082955 62.28052808811562 29.52909404992191 H 0.0 **** 0.06
12483 H 100.81889195400068 61.945955228210835 29.947671679264488 H 0.0 **** 0.06
12484 H 100.24077698409005 63.627293651801125 29.84535490626024 H 0.0 **** 0.06
12485 H 100.41425930336294 62.65404604029494 28.365166620369877 H 0.0 **** 0.06
12486 C 133.87374323053697 132.82728620880445 97.25191425889915 C 0.0 **** -0.24
12487 H 134.13435820137806 133.62857823740958 97.94425584492294 H 0.0 **** 0.06
12488 H 134.5430835418312 131.98093719428468 97.40832020373469 H 0.0 **** 0.06
12489 H 133.97532847064224 133.18575225126818 96.22802100699073 H 0.0 **** 0.06
12490 H 132.84485777354712 132.51524163458515 97.42735865975027 H 0.0 **** 0.06
12491 C 138.3792961617636 122.06575591871668 87.58154993845223 C 0.0 **** -0.24
12492 H 138.13512792501024 121.21719151249873 86.94286206850043 H 0.0 **** 0.06
12493 H 137.8279451713252 121.98479684221967 88.5195663086733 H 0.0 **** 0.06
12494 H 138.1047209034008 122.99169203434803 87.07743429658397 H 0.0 **** 0.06
12495 H 139.44952939442658 122.06821732849706 87.78850807785929 H 0.0 **** 0.06
12496 C 48.18485003156668 86.65768725439749 93.80950866426652 C 0.0 **** -0.24
12497 H 47.64144204338692 85.73853851150669 94.02962514256936 H 0.0 **** 0.06
12498 H 49.25677872484401 86.47084321853517 93.87663611251578 H 0.0 **** 0.06
12499 H 47.90435602781875 87.42682601393173 94.53012690005345 H 0.0 **** 0.06
12500 H 47.936228742821356 86.99444870050637 92.80355387466909 H 0.0 **** 0.06
12501 C 123.29722607347128 81.62085463838105 31.46048153768725 C 0.0 **** -0.24
12502 H 123.15574005425452 80.67289237612133 30.941406252611245 H 0.0 **** 0.06
12503 H 124.13832417469942 81.53526269511013 32.14897622184952 H 0.0 **** 0.06
12504 H 122.3937654429662 81.86723226041889 32.01910116862774 H 0.0 **** 0.06
12505 H 123.50007718753142 82.40699631371345 30.73415548987286 H 0.0 **** 0.06
12506 C 46.8118690200877 71.07797229057212 5.067992397315095 C 0.0 **** -0.24
12507 H 47.613911157783235 71.73690188248986 4.735652074344728 H 0.0 **** 0.06
12508 H 46.85422234268137 70.97378586686975 6.151920096649633 H 0.0 **** 0.06
12509 H 46.93012097977328 70.098724091176 4.602697446182788 H 0.0 **** 0.06
12510 H 45.85058747989996 71.5025651996578 4.780241608407778 H 0.0 **** 0.06
12511 C 77.36039317563925 134.48173929504193 113.14021103843272 C 0.0 **** -0.24
12512 H 77.59443378947608 133.4937624404865 112.74258098319943 H 0.0 **** 0.06
12513 H 77.87158862518308 135.24097340999717 112.54839969778915 H 0.0 **** 0.06
12514 H 77.69384950311442 134.54318292607903 114.17646992732519 H 0.0 **** 0.06
12515 H 76.28438510202344 134.64643325039586 113.09330283015565 H 0.0 **** 0.06
12516 C 84.65473578435986 125.01497944243013 56.45831353087172 C 0.0 **** -0.24
12517 H 84.0443928429506 125.40945835875036 57.27072523483302 H 0.0 **** 0.06
12518 H 85.32428776265039 124.24676567632665 56.8468347157298 H 0.0 **** 0.06
12519 H 85.2422161378663 125.82190219531932 56.02095054987839 H 0.0 **** 0.06
12520 H 84.00872343036258 124.58160993092608 55.695971925728 H 0.0 **** 0.06
12521 C 47.06951082786156 105.55797084926711 30.66160052588461 C 0.0 **** -0.24
12522 H 47.95525094653701 105.77514892165375 30.064603018596245 H 0.0 **** 0.06
12523 H 46.17683356243177 105.71588038722219 30.056847064345845 H 0.0 **** 0.06
12524 H 47.044394494172565 106.21997227221432 31.527196958177996 H 0.0 **** 0.06
12525 H 47.103673959561036 104.52204364366303 30.998202041277267 H 0.0 **** 0.06
12526 C 139.1943278471 96.62907188172528 96.61649567144497 C 0.0 **** -0.24
12527 H 138.7051061048043 97.39046115139297 96.00805059277599 H 0.0 **** 0.06
12528 H 139.90507949768798 97.10489487467625 97.29179519407126 H 0.0 **** 0.06
12529 H 139.7202773778669 95.92949891796393 95.96856700490525 H 0.0 **** 0.06
12530 H 138.44397784345114 96.09204136416159 97.19819410345679 H 0.0 **** 0.06
12531 C 24.54529093228294 125.98915606122256 103.6693579751209 C 0.0 **** -0.24
12532 H 25.625313572470958 126.13318900010171 103.65979398231158 H 0.0 **** 0.06
12533 H 24.146217185324844 126.17331096985325 102.67123319917619 H 0.0 **** 0.06
12534 H 24.09211634983518 126.68341953793703 104.3768351196266 H 0.0 **** 0.06
12535 H 24.31922171971641 124.9658597924747 103.96839532204379 H 0.0 **** 0.06
12536 C 125.5514922940709 118.88792559210549 92.21891160672348 C 0.0 **** -0.24
12537 H 125.4288966432631 119.97002664514036 92.2648301531909 H 0.0 **** 0.06
12538 H 124.59518918899192 118.42445725507918 91.9751691287232 H 0.0 **** 0.06
12539 H 125.89848063346332 118.52035196463743 93.18431183005853 H 0.0 **** 0.06
12540 H 126.28351913780443 118.63764657624529 91.44979321818093 H 0.0 **** 0.06
12541 C 26.92924486763762 74.4417279500645 74.82968086000855 C 0.0 **** -0.24
12542 H 26.05525520065892 74.64718479032956 75.44869499176056 H 0.0 **** 0.06
12543 H 27.150875976098007 75.31418522361164 74.21522919948234 H 0.0 **** 0.06
12544 H 26.725886893623596 73.58589223391245 74.18692693579251 H 0.0 **** 0.06
12545 H 27.783152077110515 74.22099724419043 75.47030347679762 H 0.0 **** 0.06
12546 C 78.21270830684915 17.61550224424797 4.517465693769566 C 0.0 **** -0.24
12547 H 78.03818032727634 17.356824445773995 3.473125388223309 H 0.0 **** 0.06
12548 H 77.39474490245567 17.231737981863617 5.1273991061810875 H 0.0 **** 0.06
12549 H 78.26646114440615 18.699049424274456 4.6194902284198065 H 0.0 **** 0.06
12550 H 79.15165617268332 17.171522964431524 4.849013918520882 H 0.0 **** 0.06
12551 C 99.19673670571544 7.977293946185171 114.31160417673955 C 0.0 **** -0.24
12552 H 98.30152696953928 8.59965192153274 114.30680796810869 H 0.0 **** 0.06
12553 H 99.45422155640529 7.719966499400641 115.33919604556785 H 0.0 **** 0.06
12554 H 100.02120534337388 8.524658258692881 113.8548803380737 H 0.0 **** 0.06
12555 H 99.00745914798205 7.066085966682721 113.74444995873152 H 0.0 **** 0.06
12556 C 38.78657663852993 143.80222408535496 3.2291530485800024 C 0.0 **** -0.24
12557 H 38.01395157915556 143.48992763016315 2.527467019742602 H 0.0 **** 0.06
12558 H 39.76878628582663 143.62300899826982 2.7925101373748475 H 0.0 **** 0.06
12559 H 38.68981636120694 143.23053652959354 4.152867691790959 H 0.0 **** 0.06
12560 H 38.67268461087389 144.86465130039187 3.4458323972295375 H 0.0 **** 0.06
12561 C 95.55263810324101 9.193994558681652 112.7292008960751 C 0.0 **** -0.24
12562 H 94.75984073912605 9.157487614686659 111.9809619304624 H 0.0 **** 0.06
12563 H 95.22558093552041 8.673621232963171 113.63015048782012 H 0.0 **** 0.06
12564 H 95.77584200047994 10.233352628207172 112.97005711823886 H 0.0 **** 0.06
12565 H 96.44622425358 8.711142388044607 112.33442191609402 H 0.0 **** 0.06
12566 C 64.98398565303924 117.20285385044973 127.39917457139123 C 0.0 **** -0.24
12567 H 64.99951389860675 116.15512180587008 127.69779689400355 H 0.0 **** 0.06
12568 H 65.60247724066684 117.33633651740898 126.5113899984654 H 0.0 **** 0.06
12569 H 65.37297571277682 117.81836495953088 128.20966001768153 H 0.0 **** 0.06
12570 H 63.959055704027634 117.50125261158901 127.17675668925493 H 0.0 **** 0.06
12571 C 22.63881660860889 143.41924181785112 9.985183691246931 C 0.0 **** -0.24
12572 H 23.51211736737875 143.1908122673076 10.597371315557524 H 0.0 **** 0.06
12573 H 21.761862030283964 142.92695174377377 10.406868520982044 H 0.0 **** 0.06
12574 H 22.80401790394606 143.06152063455704 8.969109892635316 H 0.0 **** 0.06
12575 H 22.478889777676414 144.49742743808036 9.96968910590121 H 0.0 **** 0.06
12576 C 67.9783296562351 80.13995458346572 133.02644174450808 C 0.0 **** -0.24
12577 H 67.3007008374517 80.96896780738908 133.23120787148034 H 0.0 **** 0.06
12578 H 68.66764749636678 80.01854150795634 133.8622848491906 H 0.0 **** 0.06
12579 H 68.54244263958506 80.3483385218135 132.11662273495546 H 0.0 **** 0.06
12580 H 67.40193849555669 79.22441292184811 132.89408394903646 H 0.0 **** 0.06
12581 C 93.4262223666922 6.277199902980534 121.97680205649216 C 0.0 **** -0.24
12582 H 93.07441688871289 5.765517681199427 122.87247559832018 H 0.0 **** 0.06
12583 H 92.93475385983244 5.855998457048173 121.10018474267447 H 0.0 **** 0.06
12584 H 94.50485215886569 6.1486415889652015 121.88554178968148 H 0.0 **** 0.06
12585 H 93.19248119248029 7.339591405596032 122.05022740130467 H 0.0 **** 0.06
12586 C 82.80243301976154 33.51530441648026 31.882879119093865 C 0.0 **** -0.24
12587 H 83.01567786711014 32.60453132654382 32.44353316846307 H 0.0 **** 0.06
12588 H 82.25759080981828 33.262659083253 30.973860334886304 H 0.0 **** 0.06
12589 H 83.7391812939614 34.00725516594585 31.621413982870692 H 0.0 **** 0.06
12590 H 82.19930405693079 34.18468125089504 32.49506286478954 H 0.0 **** 0.06
12591 C 29.602909074906663 96.47755702642165 98.4117300638526 C 0.0 **** -0.24
12592 H 29.027283645361166 96.6829672708554 97.50931281905751 H 0.0 **** 0.06
12593 H 29.372352702634842 95.47359961659319 98.76873593774164 H 0.0 **** 0.06
12594 H 29.344937363948382 97.20541729972754 99.18116942265068 H 0.0 **** 0.06
12595 H 30.66706258768197 96.54824391851068 98.18770207596047 H 0.0 **** 0.06
12596 C 129.78617181580591 117.20564242147395 84.51075651729792 C 0.0 **** -0.24
12597 H 128.70620386562496 117.33402649870646 84.43280341524235 H 0.0 **** 0.06
12598 H 130.086010274692 116.3127358698315 83.96199546300579 H 0.0 **** 0.06
12599 H 130.0634376614093 117.09792598365988 85.5599508596851 H 0.0 **** 0.06
12600 H 130.28730024661422 118.07784903490165 84.09000498628131 H 0.0 **** 0.06
12601 C 54.58784903443896 69.75431462178108 104.60344062240775 C 0.0 **** -0.24
12602 H 54.861746328948314 70.7954546908783 104.43004637006715 H 0.0 **** 0.06
12603 H 54.32722717311684 69.284533851613 103.65502448474535 H 0.0 **** 0.06
12604 H 53.731072487493094 69.71170736287092 105.27735794034346 H 0.0 **** 0.06
12605 H 55.429906912900975 69.22716798561518 105.05191676287389 H 0.0 **** 0.06
12606 C 79.83422962532546 21.405439411289542 11.023242124783621 C 0.0 **** -0.24
12607 H 79.05676746482118 20.991824671914863 10.380628439012725 H 0.0 **** 0.06
12608 H 80.6661929564716 21.751716277785007 10.409101836715678 H 0.0 **** 0.06
12609 H 80.1856211290937 20.635486644453806 11.710206206530586 H 0.0 **** 0.06
12610 H 79.42861744767265 22.241717403619603 11.592085468299217 H 0.0 **** 0.06
12611 C 29.436977613000863 63.27767934264112 85.29914685828356 C 0.0 **** -0.24
12612 H 28.390920450913654 63.11024269631052 85.04189932265831 H 0.0 **** 0.06
12613 H 29.56886187986504 63.168062192146905 86.3759920450766 H 0.0 **** 0.06
12614 H 29.728468930701098 64.28264834618231 84.99686233738123 H 0.0 **** 0.06
12615 H 30.059680302662102 62.5474969126621 84.78090662767426 H 0.0 **** 0.06
12616 C 125.04632154595434 140.7626140766714 104.87474338266307 C 0.0 **** -0.24
12617 H 125.6145861995246 140.01930717854083 105.43397235002494 H 0.0 **** 0.06
12618 H 125.60321240037186 141.04899384897317 103.98238688804116 H 0.0 **** 0.06
12619 H 124.88426193807462 141.64033353868024 105.49991383886326 H 0.0 **** 0.06
12620 H 124.0838429462453 140.3408545886571 104.58352728194625 H 0.0 **** 0.06
12621 C 120.55437626536155 67.9001418338766 95.19170550461503 C 0.0 **** -0.24
12622 H 119.77065819319682 67.51241864760743 94.54011770958937 H 0.0 **** 0.06
12623 H 120.56600604295164 68.98887690883237 95.13671824469132 H 0.0 **** 0.06
12624 H 121.52016720535198 67.50940710847459 94.87006103469673 H 0.0 **** 0.06
12625 H 120.36067836547 67.58947509404425 96.21772311531497 H 0.0 **** 0.06
12626 C 76.33786984029157 119.31325608457456 122.00621670383156 C 0.0 **** -0.24
12627 H 75.43480856280448 118.70510846953874 121.96943840465654 H 0.0 **** 0.06
12628 H 76.75801941846174 119.27898073794529 123.01199823139144 H 0.0 **** 0.06
12629 H 76.09258945873691 120.34351293648297 121.7492240393221 H 0.0 **** 0.06
12630 H 77.06687044754838 118.92516311789001 121.29473454147403 H 0.0 **** 0.06
12631 C 120.60572769666457 96.97878727022291 112.76421296850098 C 0.0 **** -0.24
12632 H 121.25490959768503 97.31151853212305 113.57356679952186 H 0.0 **** 0.06
12633 H 120.8960154018118 97.47595790731803 111.83811613452893 H 0.0 **** 0.06
12634 H 119.57216373483435 97.22827198236264 113.00188451249697 H 0.0 **** 0.06
12635 H 120.69982205232715 95.89940065908786 112.64328442745592 H 0.0 **** 0.06
12636 C 133.5230488927196 107.53207751509609 98.7242199548771 C 0.0 **** -0.24
12637 H 133.67414308620152 107.10270442595402 97.73400019391737 H 0.0 **** 0.06
12638 H 132.6281250872097 108.15480312145581 98.71742841591727 H 0.0 **** 0.06
12639 H 134.38696894432815 108.1407338237209 98.991396943517 H 0.0 **** 0.06
12640 H 133.40271128428725 106.73154106926955 99.45317612283472 H 0.0 **** 0.06
12641 C 76.56579348802546 80.55977130532372 127.63512406284181 C 0.0 **** -0.24
12642 H 76.48143300886773 81.52004907997367 128.14424371165285 H 0.0 **** 0.06
12643 H 76.07236647719378 79.79022719855904 128.22872539877991 H 0.0 **** 0.06
12644 H 77.61806643232876 80.30516015454107 127.51279800729989 H 0.0 **** 0.06
12645 H 76.09141443288308 80.62496567645941 126.65653321317691 H 0.0 **** 0.06
12646 C 136.0430128269036 83.543521124623 5.5427305240363545 C 0.0 **** -0.24
12647 H 136.38865594490366 84.42142570666839 4.997449632520102 H 0.0 **** 0.06
12648 H 134.95343266072598 83.54742740621613 5.5857739948765115 H 0.0 **** 0.06
12649 H 136.4467404529672 83.56325512512794 6.555270149085935 H 0.0 **** 0.06
12650 H 136.38405001129357 82.64244502475647 5.033474817169143 H 0.0 **** 0.06
12651 C 13.24819344961577 33.43241778520277 24.325524946909724 C 0.0 **** -0.24
12652 H 12.705525763514117 33.455777826271934 23.38041119986177 H 0.0 **** 0.06
12653 H 12.70992722803345 34.02087539605227 25.06840313455976 H 0.0 **** 0.06
12654 H 14.244823474506433 33.8517906954633 24.181782376642488 H 0.0 **** 0.06
12655 H 13.334796169885692 32.401857120290686 24.669681272845764 H 0.0 **** 0.06
12656 C 90.78990645554231 109.9663561914942 109.71558313163328 C 0.0 **** -0.24
12657 H 90.26409070258663 110.11287289643046 108.77244606983007 H 0.0 **** 0.06
12658 H 90.37880043453166 109.0982145824136 110.23091980696299 H 0.0 **** 0.06
12659 H 90.66846826730392 110.85075630193064 110.34033833922248 H 0.0 **** 0.06
12660 H 91.85028701788772 109.80415433505819 109.51939555456207 H 0.0 **** 0.06
12661 C 138.16962027958814 23.026679642039937 143.4953393885781 C 0.0 **** -0.24
12662 H 138.81238605248598 22.225893550616945 143.86174178707066 H 0.0 **** 0.06
12663 H 138.14520353863844 23.002598303189473 142.40496702326607 H 0.0 **** 0.06
12664 H 138.55966555289567 23.987379839131734 143.83039263694226 H 0.0 **** 0.06
12665 H 137.16072403377788 22.88802043246102 143.88512769761275 H 0.0 **** 0.06
12666 C 117.30843931837035 96.01304605003256 59.50351633843505 C 0.0 **** -0.24
12667 H 117.94527620734863 96.88700043667595 59.36045873296253 H 0.0 **** 0.06
12668 H 116.49827964263397 96.0308741096583 58.77470954312864 H 0.0 **** 0.06
12669 H 116.89266704674651 96.02885854892396 60.510226432272574 H 0.0 **** 0.06
12670 H 117.89981729880759 95.10762337779578 59.36840619490118 H 0.0 **** 0.06
12671 C 41.19764475717626 142.8038440558723 108.64138993042765 C 0.0 **** -0.24
12672 H 42.0436335436051 142.1495563776711 108.43362214231148 H 0.0 **** 0.06
12673 H 40.35184801489079 142.20643287811595 108.98273972459124 H 0.0 **** 0.06
12674 H 40.92168399589966 143.34139791070527 107.73459757451819 H 0.0 **** 0.06
12675 H 41.47403779953335 143.51818851900273 109.41735178576464 H 0.0 **** 0.06
12676 C 31.112964514310647 49.802143935623576 144.72978090932295 C 0.0 **** -0.24
12677 H 30.70861110741876 48.841095669653384 145.04789796085376 H 0.0 **** 0.06
12678 H 30.413420384751504 50.59587603759951 144.99448700299908 H 0.0 **** 0.06
12679 H 31.26240239821115 49.79447693323567 143.65064682092404 H 0.0 **** 0.06
12680 H 32.066835914188914 49.97793009294105 145.22782659718737 H 0.0 **** 0.06
12681 C 138.5163763294873 111.04080886248384 124.83676259132642 C 0.0 **** -0.24
12682 H 138.46216359118202 112.03926783731772 125.27035634190605 H 0.0 **** 0.06
12683 H 138.40263732868854 111.10813995430136 123.75432141236575 H 0.0 **** 0.06
12684 H 137.7190393660706 110.42145333400946 125.24830896711956 H 0.0 **** 0.06
12685 H 139.48281997448902 110.59494770203936 125.07348275390302 H 0.0 **** 0.06
12686 C 124.37950910238834 126.85140344867216 95.68544250797686 C 0.0 **** -0.24
12687 H 124.99282119308444 127.42490844288743 96.38017352091629 H 0.0 **** 0.06
12688 H 124.66383669046076 127.09884521389631 94.6622106992931 H 0.0 **** 0.06
12689 H 123.32936031988577 127.09528403494994 95.84118467528975 H 0.0 **** 0.06
12690 H 124.53497632139835 125.78607770825047 95.85816176801245 H 0.0 **** 0.06
12691 C 42.37982684657035 24.51619678169081 73.8913751133901 C 0.0 **** -0.24
12692 H 43.43688814153553 24.33418526778891 74.08621643337325 H 0.0 **** 0.06
12693 H 41.80353974947059 23.631270929260396 74.16242554889739 H 0.0 **** 0.06
12694 H 42.23815025131029 24.732693777289796 72.83295239521811 H 0.0 **** 0.06
12695 H 42.04221967135243 25.365656322243666 74.48480983106451 H 0.0 **** 0.06
12696 C 116.02982503448169 106.63978261226148 105.12760038581685 C 0.0 **** -0.24
12697 H 116.80616950066923 105.93752635775107 105.43038627598959 H 0.0 **** 0.06
12698 H 115.20572631640323 106.09333729896801 104.66813901492186 H 0.0 **** 0.06
12699 H 116.44228126357137 107.34831091988374 104.40921511487572 H 0.0 **** 0.06
12700 H 115.66630826092694 107.17849868875496 106.00144782530641 H 0.0 **** 0.06
12701 C 98.3442286892531 7.516649654577776 134.2690165907372 C 0.0 **** -0.24
12702 H 99.20835334419897 7.766314823096224 133.65245529746576 H 0.0 **** 0.06
12703 H 98.01445119670129 8.403691759759795 134.8093424010482 H 0.0 **** 0.06
12704 H 98.62042525009373 6.738138564491948 134.98107620565057 H 0.0 **** 0.06
12705 H 97.53570263229022 7.156584454275219 133.63253204308776 H 0.0 **** 0.06
12706 C 27.762499557394676 25.333869641198135 56.495844075836544 C 0.0 **** -0.24
12707 H 27.442366393039265 24.294490152977367 56.41257941360601 H 0.0 **** 0.06
12708 H 27.084990853276736 25.968463209031732 55.92418169786356 H 0.0 **** 0.06
12709 H 28.773606345085454 25.435080609940137 56.102350403438706 H 0.0 **** 0.06
12710 H 27.74663863257382 25.63492401385112 57.54331273457447 H 0.0 **** 0.06
12711 C 78.23421431994984 17.109792118919415 56.44886921719393 C 0.0 **** -0.24
12712 H 79.27035892479375 17.378893206682392 56.24600764407751 H 0.0 **** 0.06
12713 H 77.71145771520668 16.942167630994646 55.50686683526402 H 0.0 **** 0.06
12714 H 77.74866976445594 17.918230323848732 56.99600363868453 H 0.0 **** 0.06
12715 H 78.20588258392843 16.1982782791369 57.047051287556855 H 0.0 **** 0.06
12716 C 134.0991360380389 99.55059969899403 71.06983883648726 C 0.0 **** -0.24
12717 H 134.1111330916592 99.45558642038222 69.98360705352222 H 0.0 **** 0.06
12718 H 133.20842331823866 99.06226815934008 71.46661724516092 H 0.0 **** 0.06
12719 H 134.08663944380612 100.60621605711654 71.3405782352129 H 0.0 **** 0.06
12720 H 134.98948894870213 99.0791697215661 71.48580441546164 H 0.0 **** 0.06
12721 C 109.34078955494928 55.53890355285367 11.645045202953732 C 0.0 **** -0.24
12722 H 108.7765121660677 55.68000963773588 12.567100524101761 H 0.0 **** 0.06
12723 H 109.8946160181035 56.44947627753737 11.414933296586554 H 0.0 **** 0.06
12724 H 108.65282388376332 55.31614349627773 10.829061675493797 H 0.0 **** 0.06
12725 H 110.038137262888 54.71061356970213 11.76840545372447 H 0.0 **** 0.06
12726 C 75.60631583428005 84.54454195285763 117.73542945782522 C 0.0 **** -0.24
12727 H 75.30247700464548 84.28303685874465 116.721558671614 H 0.0 **** 0.06
12728 H 75.60112232771502 85.6284669213606 117.8479352961604 H 0.0 **** 0.06
12729 H 76.6101414562801 84.1641631199584 117.92243460898679 H 0.0 **** 0.06
12730 H 74.911440142705 84.10132182360411 118.44852312169441 H 0.0 **** 0.06
12731 C 48.535068088007364 116.80515058428229 31.322150359360762 C 0.0 **** -0.24
12732 H 47.50221037542066 116.46403194999887 31.400756804402363 H 0.0 **** 0.06
12733 H 48.677121439671694 117.31414103266773 30.368535925616868 H 0.0 **** 0.06
12734 H 49.20567476015667 115.94782137733962 31.381700557219688 H 0.0 **** 0.06
12735 H 48.75272925077637 117.49339405298694 32.13865352916008 H 0.0 **** 0.06
12736 C 113.56891105489495 65.10422439927115 63.26046680751817 C 0.0 **** -0.24
12737 H 112.53239321314811 65.18184820200047 62.933124202294835 H 0.0 **** 0.06
12738 H 114.07798859263704 66.05069517440344 63.079011524703105 H 0.0 **** 0.06
12739 H 114.06747188723205 64.31029762015962 62.70421931704308 H 0.0 **** 0.06
12740 H 113.59779052656268 64.87405660052103 64.3255121860317 H 0.0 **** 0.06
12741 C 50.14787857426646 72.61176522546133 105.61504686925507 C 0.0 **** -0.24
12742 H 50.38660327656301 71.9559182839345 104.7781865618181 H 0.0 **** 0.06
12743 H 49.999381538356346 73.62808552189125 105.24831994012861 H 0.0 **** 0.06
12744 H 50.968421429675416 72.59976122117997 106.33130251556132 H 0.0 **** 0.06
12745 H 49.23583316069549 72.26332153560857 106.1005415569848 H 0.0 **** 0.06
12746 C 116.65770018894007 80.57307286800048 26.579545918767536 C 0.0 **** -0.24
12747 H 116.58513607028765 79.52648660649798 26.87481787623713 H 0.0 **** 0.06
12748 H 115.6781882405255 80.9285344472556 26.258257348753652 H 0.0 **** 0.06
12749 H 117.36765917970938 80.67048522137746 25.759135109570572 H 0.0 **** 0.06
12750 H 116.99917877357878 81.16587386007228 27.42730071562022 H 0.0 **** 0.06
12751 C 111.36075594683668 44.456472936984085 92.72994291379192 C 0.0 **** -0.24
12752 H 110.44307961096654 43.870776094708845 92.7836760135977 H 0.0 **** 0.06
12753 H 112.22080030568021 43.796383822777216 92.85225013704147 H 0.0 **** 0.06
12754 H 111.36013745312145 45.20427996557589 93.52268318793278 H 0.0 **** 0.06
12755 H 111.41864529635431 44.95225397132339 91.7609646456329 H 0.0 **** 0.06
12756 C 26.60023873085116 132.9263284747414 11.816061608467379 C 0.0 **** -0.24
12757 H 25.769760143683172 133.6097796855649 11.639696514195343 H 0.0 **** 0.06
12758 H 27.409659439734 133.15104202099127 11.12055252091136 H 0.0 **** 0.06
12759 H 26.264468184859027 131.90036306504305 11.664275484740877 H 0.0 **** 0.06
12760 H 26.95758463013547 133.04482575422077 12.839224948907997 H 0.0 **** 0.06
12761 C 116.88355174336625 17.60933934849308 33.72697183148483 C 0.0 **** -0.24
12762 H 117.3348479955474 18.255542623762295 34.48036014336883 H 0.0 **** 0.06
12763 H 116.48138640683685 18.22012021044165 32.91840847750446 H 0.0 **** 0.06
12764 H 116.07934847369991 17.029667943976932 34.179688125977776 H 0.0 **** 0.06
12765 H 117.63956080761155 16.93236759209097 33.329350874704325 H 0.0 **** 0.06
12766 C 64.45325919569426 95.1580571950528 1.5942461441235878 C 0.0 **** -0.24
12767 H 65.3783570738353 95.3073124913582 1.0377188259646744 H 0.0 **** 0.06
12768 H 64.21045100261517 96.06857008756971 2.144249284824781 H 0.0 **** 0.06
12769 H 64.57911393569209 94.33225788904969 2.294293268266273 H 0.0 **** 0.06
12770 H 63.644930856783375 94.92651804566836 0.900472531878421 H 0.0 **** 0.06
12771 C 102.41411825289154 123.993824162495 12.409738111995551 C 0.0 **** -0.24
12772 H 103.46226541882123 124.1544923573648 12.156145576991833 H 0.0 **** 0.06
12773 H 102.21529439807365 124.39625236412309 13.404057780511806 H 0.0 **** 0.06
12774 H 102.19837310374753 122.92558053837445 12.400439060744532 H 0.0 **** 0.06
12775 H 101.78252920403453 124.49868852741707 11.67971134333871 H 0.0 **** 0.06
12776 C 8.973586339765632 31.503544584555925 15.357331601045814 C 0.0 **** -0.24
12777 H 8.567071528765325 31.027879469763718 14.465059622248646 H 0.0 **** 0.06
12778 H 9.419695367255429 32.461432690982235 15.086591717602971 H 0.0 **** 0.06
12779 H 9.7334119188248 30.859256478725626 15.798103381239684 H 0.0 **** 0.06
12780 H 8.172586129246554 31.666735387035203 16.078076565537344 H 0.0 **** 0.06
12781 C 54.269989191656535 134.7795108548826 73.70237880872634 C 0.0 **** -0.24
12782 H 54.525446524924476 135.42344263008025 74.54349430895401 H 0.0 **** 0.06
12783 H 54.0210706102161 133.78368178019159 74.07013541879007 H 0.0 **** 0.06
12784 H 55.12115731263387 134.71382033672487 73.02390218636121 H 0.0 **** 0.06
12785 H 53.41324493539214 135.19615700820563 73.17241543774384 H 0.0 **** 0.06
12786 C 41.917127007759944 8.378739800582935 2.8127902561151075 C 0.0 **** -0.24
12787 H 41.90513021034262 8.16744250187935 1.743898123718111 H 0.0 **** 0.06
12788 H 41.576793129007584 9.399765846384923 2.985125852069217 H 0.0 **** 0.06
12789 H 42.93164072506309 8.264809336768565 3.1937740236386674 H 0.0 **** 0.06
12790 H 41.2558121892132 7.681875459617913 3.328031667336063 H 0.0 **** 0.06
12791 C 59.29688310309945 14.932258610800062 74.40674433633023 C 0.0 **** -0.24
12792 H 59.065677821779275 15.42442664245388 75.35142028221676 H 0.0 **** 0.06
12793 H 58.70041306189762 15.377173400646171 73.60985397695096 H 0.0 **** 0.06
12794 H 59.0664162679106 13.869563419710147 74.4842419489901 H 0.0 **** 0.06
12795 H 60.35628333441326 15.058386004736093 74.181851121901 H 0.0 **** 0.06
12796 C 42.640078251800844 0.9765415429450854 84.72222419207051 C 0.0 **** -0.24
12797 H 42.33066902192124 1.253249815642107 85.72971976218375 H 0.0 **** 0.06
12798 H 43.22668329363242 0.05882593694559546 84.76153674642708 H 0.0 **** 0.06
12799 H 43.244641238455415 1.77655429738806 84.29585105765943 H 0.0 **** 0.06
12800 H 41.757349188219195 0.8180609826447096 84.10267418468953 H 0.0 **** 0.06
12801 C 67.07169176024348 126.65435275839134 139.15597712774118 C 0.0 **** -0.24
12802 H 67.02063327053425 125.6950662649281 138.64269721237892 H 0.0 **** 0.06
12803 H 66.15545135945814 127.21511252365067 138.96948600907902 H 0.0 **** 0.06
12804 H 67.92640807641769 127.22069648741139 138.78416029329435 H 0.0 **** 0.06
12805 H 67.18445501539671 126.4879364390438 140.22763938185562 H 0.0 **** 0.06
12806 C 69.59329105357473 27.066199083631233 11.18722989916757 C 0.0 **** -0.24
12807 H 70.39918348485283 26.331640497028218 11.210425435191453 H 0.0 **** 0.06
12808 H 70.00940402843602 28.055257211294332 10.996096697911824 H 0.0 **** 0.06
12809 H 69.07572552796196 27.06788449769772 12.146590096852414 H 0.0 **** 0.06
12810 H 68.89097949986468 26.807702288706167 10.39545231949657 H 0.0 **** 0.06
12811 C 44.84285353767673 60.261599283668374 70.14060582099728 C 0.0 **** -0.24
12812 H 45.65438716826587 60.53514157065216 69.46613662998496 H 0.0 **** 0.06
12813 H 44.55555541075515 59.22508282792711 69.96144288080733 H 0.0 **** 0.06
12814 H 43.987250028180995 60.91249386071027 69.96075093760855 H 0.0 **** 0.06
12815 H 45.17574393030746 60.37280232371178 71.17238571588499 H 0.0 **** 0.06
12816 C 86.4434319165543 62.72110397383848 103.36545165461617 C 0.0 **** -0.24
12817 H 86.26212793569147 62.71446475066129 104.43965211436736 H 0.0 **** 0.06
12818 H 86.76758717738944 61.72999865500098 103.04557577324272 H 0.0 **** 0.06
12819 H 87.2189783798575 63.45017120041079 103.13232180575169 H 0.0 **** 0.06
12820 H 85.52384321690126 62.98901906714674 102.84422994940414 H 0.0 **** 0.06
12821 C 88.48927091995971 114.4274792169029 76.4564897641983 C 0.0 **** -0.24
12822 H 89.33791031053002 113.7735467480826 76.26084641613372 H 0.0 **** 0.06
12823 H 88.83773899583099 115.45538373424824 76.55615015293884 H 0.0 **** 0.06
12824 H 87.99837056717375 114.11963434600727 77.37948394437021 H 0.0 **** 0.06
12825 H 87.78185641861651 114.36206589398171 75.62929767381044 H 0.0 **** 0.06
12826 C 11.33395205052642 64.15823148168329 15.824510448792438 C 0.0 **** -0.24
12827 H 10.895611856689328 63.49974001555199 16.575449745999663 H 0.0 **** 0.06
12828 H 12.295418131585308 63.75449407692366 15.505510407175791 H 0.0 **** 0.06
12829 H 11.47962389724384 65.14943588062604 16.251483934787046 H 0.0 **** 0.06
12830 H 10.666080057840503 64.22616205475043 14.966353533475484 H 0.0 **** 0.06
12831 C 11.00506695982375 59.29426803060102 128.00014937953142 C 0.0 **** -0.24
12832 H 11.81098013035222 59.11479385404381 127.28910870398806 H 0.0 **** 0.06
12833 H 11.427740252516031 59.46814478997865 128.99098698866828 H 0.0 **** 0.06
12834 H 10.347769805397746 58.424879015544334 128.03243131525937 H 0.0 **** 0.06
12835 H 10.43448260565566 60.169512039997755 127.69040223812533 H 0.0 **** 0.06
12836 C 129.0151863212403 44.44935753797154 9.65678189934571 C 0.0 **** -0.24
12837 H 130.05043866623546 44.1289782724394 9.778550752309144 H 0.0 **** 0.06
12838 H 128.6551042898873 44.146235051240524 8.67427564952872 H 0.0 **** 0.06
12839 H 128.95763895934815 45.53386029855129 9.746352724460088 H 0.0 **** 0.06
12840 H 128.3997682418071 43.98781480991076 10.42886789475039 H 0.0 **** 0.06
12841 C 10.760465940451525 129.39001207302107 23.576473203501067 C 0.0 **** -0.24
12842 H 10.028831206656662 130.17991564247177 23.749790585665792 H 0.0 **** 0.06
12843 H 10.66147209437986 129.02036005460235 22.55629162099259 H 0.0 **** 0.06
12844 H 10.586443784784592 128.57425353533316 24.27777996305573 H 0.0 **** 0.06
12845 H 11.763949582776718 129.78742497488358 23.72448133014732 H 0.0 **** 0.06
12846 C 68.15006711559789 142.05516447026022 2.424684286656486 C 0.0 **** -0.24
12847 H 68.4903247044324 141.97021924935754 1.3924556317996917 H 0.0 **** 0.06
12848 H 68.96324783871023 141.787042015013 3.098454510111651 H 0.0 **** 0.06
12849 H 67.30739205314921 141.38184363714456 2.584883337694407 H 0.0 **** 0.06
12850 H 67.83725093355736 143.08087109374944 2.620864991263261 H 0.0 **** 0.06
12851 C 91.73242355588768 83.92405996708231 128.94489858716045 C 0.0 **** -0.24
12852 H 92.15598180667979 84.26510715887025 128.00097536116007 H 0.0 **** 0.06
12853 H 92.30559148711988 84.34315383544964 129.7728187611572 H 0.0 **** 0.06
12854 H 91.77204611717144 82.83626618051318 128.98967104662015 H 0.0 **** 0.06
12855 H 90.69616672324494 84.25377794467602 129.01744316299406 H 0.0 **** 0.06
12856 C 29.159168839107217 22.07214131140563 118.77763659572622 C 0.0 **** -0.24
12857 H 29.140363931409944 21.016090118006503 118.51029766552239 H 0.0 **** 0.06
12858 H 28.370254917505925 22.278209187197263 119.50188780041452 H 0.0 **** 0.06
12859 H 28.99888246153629 22.67587622822515 117.88517580588524 H 0.0 **** 0.06
12860 H 30.127127271862072 22.318688537532125 119.21456663305634 H 0.0 **** 0.06
12861 C 58.95696950187741 107.56966791509133 105.82255109879152 C 0.0 **** -0.24
12862 H 59.23381303362831 108.03943023765227 106.76624644472479 H 0.0 **** 0.06
12863 H 59.409549350740306 108.11999979665644 104.9968034010517 H 0.0 **** 0.06
12864 H 57.8721156676137 107.58233830825215 105.71553925793584 H 0.0 **** 0.06
12865 H 59.311957950661935 106.53909361304092 105.81170164471241 H 0.0 **** 0.06
12866 C 7.482423912549535 129.6274408675218 20.5210897514427 C 0.0 **** -0.24
12867 H 7.306966798811146 129.2484303575953 21.52698917528923 H 0.0 **** 0.06
12868 H 8.548392788476377 129.80781242136766 20.380567956103818 H 0.0 **** 0.06
12869 H 6.934489234531014 130.55965552243737 20.383844271385016 H 0.0 **** 0.06
12870 H 7.138696424361854 128.89302331290088 19.79123479486617 H 0.0 **** 0.06
12871 C 132.889944360811 40.935650934839785 6.1917476887958856 C 0.0 **** -0.24
12872 H 133.24939486907178 39.92772749847384 6.397717468866887 H 0.0 **** 0.06
12873 H 133.73697823904072 41.58619731496678 5.974996925374626 H 0.0 **** 0.06
12874 H 132.35277996511667 41.31484353026673 7.0610976091246584 H 0.0 **** 0.06
12875 H 132.2187128707539 40.91343972694825 5.332743101062675 H 0.0 **** 0.06
12876 C 55.543128312466536 77.51975849755331 57.7244437877803 C 0.0 **** -0.24
12877 H 55.37016819465012 78.51032824646862 57.30371909298458 H 0.0 **** 0.06
12878 H 55.92931444808195 76.8591521008951 56.94806606879473 H 0.0 **** 0.06
12879 H 54.60558222067675 77.11973002114325 58.108945264826914 H 0.0 **** 0.06
12880 H 56.26766577732536 77.59058562248927 58.535873322201 H 0.0 **** 0.06
12881 C 36.332264605989735 4.790936113486282 142.5957562043704 C 0.0 **** -0.24
12882 H 35.63628149140246 4.693811281083811 141.76295902865837 H 0.0 **** 0.06
12883 H 36.03401980259674 5.633090519124153 143.2208129412069 H 0.0 **** 0.06
12884 H 37.33748970980577 4.962240299206485 142.2111339897942 H 0.0 **** 0.06
12885 H 36.320700104731756 3.8767035807661614 143.18760580818721 H 0.0 **** 0.06
12886 C 6.459310266478582 24.10364513217319 62.24143316734995 C 0.0 **** -0.24
12887 H 6.317019001705603 23.25897577214519 62.91693286985165 H 0.0 **** 0.06
12888 H 5.518051449949411 24.329958223884205 61.74029533104985 H 0.0 **** 0.06
12889 H 7.215766295488322 23.849809564579296 61.49906084639531 H 0.0 **** 0.06
12890 H 6.7861483640804465 24.973103591440776 62.8117810795228 H 0.0 **** 0.06
12891 C 100.21463489006106 1.9934559027899397 106.26292833938962 C 0.0 **** -0.24
12892 H 101.00828023498039 1.3264326945915208 106.59779540462151 H 0.0 **** 0.06
12893 H 100.65313921178675 2.8560005382957208 105.75972294553557 H 0.0 **** 0.06
12894 H 99.63618967971519 2.3299730016456763 107.12270169986695 H 0.0 **** 0.06
12895 H 99.56073561653305 1.4621691441847595 105.57086327938546 H 0.0 **** 0.06
12896 C 96.52847929376944 136.88694293323576 2.9694619569626752 C 0.0 **** -0.24
12897 H 96.6449675255691 137.6953947459522 3.690215029312128 H 0.0 **** 0.06
12898 H 97.10131488975802 136.01959366113041 3.299496154303881 H 0.0 **** 0.06
12899 H 96.8931819951723 137.21324780430595 1.9951093515841194 H 0.0 **** 0.06
12900 H 95.47528330277085 136.61843709057916 2.891265511133838 H 0.0 **** 0.06
12901 C 22.914029131977692 76.0892013653309 77.19600500795994 C 0.0 **** -0.24
12902 H 22.755627179445817 75.0651566682815 77.53490204021716 H 0.0 **** 0.06
12903 H 22.165717460211255 76.74051861743243 77.64893814782599 H 0.0 **** 0.06
12904 H 22.823364493475744 76.13128280899119 76.11130832022502 H 0.0 **** 0.06
12905 H 23.90950940185786 76.41865973514282 77.49131848798805 H 0.0 **** 0.06
12906 C 113.5493004148199 88.86502593500293 10.778033583801886 C 0.0 **** -0.24
12907 H 114.51631465984988 88.53448362452755 11.157812663475369 H 0.0 **** 0.06
12908 H 113.18162849856773 89.6897175444519 11.38894440018467 H 0.0 **** 0.06
12909 H 112.84084329076651 88.03715961398154 10.819660424090387 H 0.0 **** 0.06
12910 H 113.65999298720729 89.19716373365358 9.745846813826262 H 0.0 **** 0.06
12911 C 32.81759506207692 23.285680713734706 66.91557413369858 C 0.0 **** -0.24
12912 H 32.194428307553835 23.895228230249792 67.56958552223938 H 0.0 **** 0.06
12913 H 32.91787076725524 23.77831706384893 65.94757869033705 H 0.0 **** 0.06
12914 H 32.35465964168071 22.3081571240969 66.7806618550002 H 0.0 **** 0.06
12915 H 33.803005171889595 23.16223433959393 67.36506474967862 H 0.0 **** 0.06
12916 C 136.60597192993856 77.68476181192328 28.138416967842325 C 0.0 **** -0.24
12917 H 137.59302475382898 77.26532774635052 27.939312071233594 H 0.0 **** 0.06
12918 H 136.68869589793638 78.76472657571148 28.259906649929803 H 0.0 **** 0.06
12919 H 136.20233538812795 77.24475904783054 29.05043287486972 H 0.0 **** 0.06
12920 H 135.94237698188266 77.46192800432581 27.302531352211787 H 0.0 **** 0.06
12921 C 72.75123299145292 120.04931544013213 27.544179342534427 C 0.0 **** -0.24
12922 H 73.01271205096376 121.06679604502294 27.252872230006034 H 0.0 **** 0.06
12923 H 73.34971065709556 119.75419426037611 28.406827548684568 H 0.0 **** 0.06
12924 H 72.95059093929049 119.37235886068261 26.71369148707499 H 0.0 **** 0.06
12925 H 71.69386565751594 120.00607636007028 27.802600582441187 H 0.0 **** 0.06
12926 C 5.574038908064892 74.89277053881672 18.867258847533463 C 0.0 **** -0.24
12927 H 6.324208830764206 74.54379348137874 19.576194637576542 H 0.0 **** 0.06
12928 H 5.023948375162206 75.72723517195193 19.301391370484097 H 0.0 **** 0.06
12929 H 4.883702991457312 74.08039664420586 18.639832200148817 H 0.0 **** 0.06
12930 H 6.065107811440242 75.21908156674867 17.950612606407766 H 0.0 **** 0.06
12931 C 2.59831010909474 52.21583995840041 133.18456856869423 C 0.0 **** -0.24
12932 H 3.1841909182795973 51.612374905527105 133.87727086199473 H 0.0 **** 0.06
12933 H 1.8881472711089486 52.825860546852724 133.74394820422893 H 0.0 **** 0.06
12934 H 2.056477717674511 51.56194510113859 132.5012969769244 H 0.0 **** 0.06
12935 H 3.2647132461300714 52.86359386543917 132.61443730432262 H 0.0 **** 0.06
12936 C 136.31053553122914 24.197673262692234 1.7200450261474352 C 0.0 **** -0.24
12937 H 137.21373278301263 23.971324523984237 1.1533194554030644 H 0.0 **** 0.06
12938 H 136.3906617401869 23.765934654745024 2.7182451615776912 H 0.0 **** 0.06
12939 H 135.44603796849216 23.7747277397593 1.2089257465528505 H 0.0 **** 0.06
12940 H 136.192916227164 25.27802272301264 1.7999675363090901 H 0.0 **** 0.06
12941 C 135.3381311006633 83.88241269451512 90.96495621603609 C 0.0 **** -0.24
12942 H 135.8443755610914 83.60932745463876 91.89023825226926 H 0.0 **** 0.06
12943 H 135.87624450307848 84.69977724087451 90.48451675355861 H 0.0 **** 0.06
12944 H 134.31944195417972 84.19865222442496 91.18852245263093 H 0.0 **** 0.06
12945 H 135.31287143728767 83.02098297736231 90.29649249139439 H 0.0 **** 0.06
12946 C 113.60468555603155 43.4086254548762 142.50173350339722 C 0.0 **** -0.24
12947 H 114.03953656807981 42.84444473314848 141.67697560804575 H 0.0 **** 0.06
12948 H 112.56017002358577 43.62819863772327 142.27999530423028 H 0.0 **** 0.06
12949 H 114.15285424647958 44.34173532555026 142.6330574035507 H 0.0 **** 0.06
12950 H 113.66541137157499 42.81949850420797 143.41677541822557 H 0.0 **** 0.06
12951 C 58.30718883885686 122.00728410926659 0.6013502932441313 C 0.0 **** -0.24
12952 H 58.48706995051586 121.13799447483756 -0.032561601739200086 H 0.0 **** 0.06
12953 H 59.26157710013169 122.42191225187686 0.9277832882504775 H 0.0 **** 0.06
12954 H 57.72492349889768 121.7066291698586 1.4715499917719015 H 0.0 **** 0.06
12955 H 57.75653636404596 122.76008194558854 0.037276569323957176 H 0.0 **** 0.06
12956 C 113.83765118723262 39.71023623202785 59.041495179609996 C 0.0 **** -0.24
12957 H 113.60017814803247 39.26918889571226 58.07370921462376 H 0.0 **** 0.06
12958 H 113.92963429261526 38.92039964412635 59.78766956393085 H 0.0 **** 0.06
12959 H 113.04235090740563 40.395336501857344 59.33388011238803 H 0.0 **** 0.06
12960 H 114.77844140087727 40.256019886415515 58.97072182749717 H 0.0 **** 0.06
12961 C 109.6701583382224 124.62117436662106 140.33564566126074 C 0.0 **** -0.24
12962 H 108.78602400047924 125.03151306893733 140.82348325374713 H 0.0 **** 0.06
12963 H 109.36429857002196 123.97292948899485 139.51412128413165 H 0.0 **** 0.06
12964 H 110.24799392629785 124.04369624243168 141.0584859084803 H 0.0 **** 0.06
12965 H 110.28230555698758 125.43564233932278 139.94796201111268 H 0.0 **** 0.06
12966 C 56.64189300991508 72.38547897080035 90.54107929103657 C 0.0 **** -0.24
12967 H 55.611839339992756 72.67174747830323 90.32966109006907 H 0.0 **** 0.06
12968 H 56.90308570779003 72.68929995870869 91.5544839746534 H 0.0 **** 0.06
12969 H 57.307737328934806 72.87581201171994 89.83063804386138 H 0.0 **** 0.06
12970 H 56.74426257199195 71.30357811173249 90.447004978987 H 0.0 **** 0.06
12971 C 140.7347587968196 136.73230932113302 17.894970333027942 C 0.0 **** -0.24
12972 H 140.43438596876828 137.51438496274082 17.197784027883387 H 0.0 **** 0.06
12973 H 141.42818507144975 136.0515565649455 17.400749126264344 H 0.0 **** 0.06
12974 H 139.85448835889665 136.1796107197511 18.22314880034864 H 0.0 **** 0.06
12975 H 141.2224784754026 137.18418708852565 18.75890314858836 H 0.0 **** 0.06
12976 C 122.33324062671988 108.00970779968551 71.64772658855544 C 0.0 **** -0.24
12977 H 123.10844214696738 107.73770114505155 70.93093309936049 H 0.0 **** 0.06
12978 H 122.74374904244746 108.705623707868 72.37988764977662 H 0.0 **** 0.06
12979 H 121.97970174795756 107.11277879169418 72.15681748019449 H 0.0 **** 0.06
12980 H 121.50227096015743 108.48116252946144 71.12294020260462 H 0.0 **** 0.06
12981 C 4.7028801531427575 45.83306200155718 50.468226836307096 C 0.0 **** -0.24
12982 H 4.718199376712363 45.216481347104036 49.56925768555499 H 0.0 **** 0.06
12983 H 4.656774994989888 45.191002126481436 51.34823556201195 H 0.0 **** 0.06
12984 H 3.829989038397372 46.48509464735443 50.44590186397885 H 0.0 **** 0.06
12985 H 5.60826168737745 46.43917500521812 50.506894933214156 H 0.0 **** 0.06
12986 C 62.91389053044742 136.64006277059053 15.860146307094212 C 0.0 **** -0.24
12987 H 62.64459086394041 137.0791726356969 14.898854899660556 H 0.0 **** 0.06
12988 H 63.97858962142584 136.78477695445596 16.039783413541684 H 0.0 **** 0.06
12989 H 62.68763889051411 135.574008309992 15.847341354421651 H 0.0 **** 0.06
12990 H 62.34206078900945 137.12342438977385 16.652254372074978 H 0.0 **** 0.06
12991 C 49.85451944855353 6.281382680880192 56.26570632949728 C 0.0 **** -0.24
12992 H 49.04721522587015 6.863056418643474 55.81963627533986 H 0.0 **** 0.06
12993 H 50.09039355493978 6.683999062920165 57.25064914012211 H 0.0 **** 0.06
12994 H 50.7366987096316 6.338488269784914 55.62824371187003 H 0.0 **** 0.06
12995 H 49.542153387848145 5.242094460503807 56.36231009994225 H 0.0 **** 0.06
12996 C 67.65562924726262 142.56103417287133 94.01601014987148 C 0.0 **** -0.24
12997 H 68.28772591584853 141.68398843500333 94.15746862666975 H 0.0 **** 0.06
12998 H 67.26422094321015 142.88458860409284 94.98014236953733 H 0.0 **** 0.06
12999 H 66.82856058202881 142.30984064150547 93.35281781010514 H 0.0 **** 0.06
13000 H 68.24560979661969 143.36471157885427 93.57376639545322 H 0.0 **** 0.06
13001 C 27.9649159744302 69.54603972026666 33.85750064441847 C 0.0 **** -0.24
13002 H 27.642238627955578 70.04860433092136 32.94649187703503 H 0.0 **** 0.06
13003 H 28.886369132727964 68.99699570666098 33.6628813809961 H 0.0 **** 0.06
13004 H 27.189841941528186 68.85156958581805 34.1827642357806 H 0.0 **** 0.06
13005 H 28.140357008049932 70.28648034015879 34.637785860676786 H 0.0 **** 0.06
13006 C 41.876112931781876 67.80099554872365 121.11466327509234 C 0.0 **** -0.24
13007 H 40.835600822953865 68.02832936169224 121.34696220817071 H 0.0 **** 0.06
13008 H 42.33158876948548 67.28188588741327 121.95836929410419 H 0.0 **** 0.06
13009 H 42.415739575709665 68.72874549618197 120.92424001002755 H 0.0 **** 0.06
13010 H 41.92091622149721 67.16627706628068 120.23010916418255 H 0.0 **** 0.06
13011 C 78.6559432357613 19.851912754709844 25.75288102843136 C 0.0 **** -0.24
13012 H 79.22739797617652 19.06855794358117 26.251800521609134 H 0.0 **** 0.06
13013 H 77.59108652155865 19.637665643088624 25.84260415664665 H 0.0 **** 0.06
13014 H 78.93302414278082 19.88897154158135 24.699014934781516 H 0.0 **** 0.06
13015 H 78.8742678893162 20.81332461336286 26.219214105491375 H 0.0 **** 0.06
13016 C 139.2840093533554 115.13379056577001 24.576180000078125 C 0.0 **** -0.24
13017 H 139.64761968063215 114.16167748225742 24.24274696044308 H 0.0 **** 0.06
13018 H 138.24858533198227 115.03898515553352 24.907019890834725 H 0.0 **** 0.06
13019 H 139.339003325948 115.84476312917634 23.75215236195418 H 0.0 **** 0.06
13020 H 139.89906372748393 115.4867468313084 25.403773423121322 H 0.0 **** 0.06
13021 C 53.3348651665425 87.2303576969748 135.07111556213587 C 0.0 **** -0.24
13022 H 54.196933893153656 86.74678117056527 135.5310733542769 H 0.0 **** 0.06
13023 H 52.98724028247183 88.0401092151473 135.71295069071266 H 0.0 **** 0.06
13024 H 52.536972161153216 86.50012821691323 134.94002204961714 H 0.0 **** 0.06
13025 H 53.62103012390355 87.63408263695248 134.09969767810057 H 0.0 **** 0.06
13026 C 68.18125896709189 127.3725538810358 93.84812737269489 C 0.0 **** -0.24
13027 H 68.61249913401105 127.37902106851507 92.84792593471029 H 0.0 **** 0.06
13028 H 68.96633981635055 127.55457821660353 94.58301318742663 H 0.0 **** 0.06
13029 H 67.72072155547181 126.40334157610614 94.03974078666478 H 0.0 **** 0.06
13030 H 67.42522010311512 128.1550334627883 93.92318666858402 H 0.0 **** 0.06
13031 C 38.695926077430926 34.040908420864326 61.74069455663118 C 0.0 **** -0.24
13032 H 39.71111054061083 34.436206289151414 61.73257383753918 H 0.0 **** 0.06
13033 H 38.006865712166075 34.81632054336944 62.07769280099467 H 0.0 **** 0.06
13034 H 38.644171044970705 33.188396513571206 62.41910875959928 H 0.0 **** 0.06
13035 H 38.4218776913678 33.722219333652276 60.73468975008541 H 0.0 **** 0.06
13036 C 58.46991536120862 66.59988155164848 62.7170134228888 C 0.0 **** -0.24
13037 H 58.97066225058296 67.54138107996897 62.943270132560315 H 0.0 **** 0.06
13038 H 58.29455327909392 66.53128474257285 61.64255514372148 H 0.0 **** 0.06
13039 H 57.517572310214746 66.55871418514403 63.24476603261168 H 0.0 **** 0.06
13040 H 59.09907443386027 65.76833079506905 63.03569528736462 H 0.0 **** 0.06
13041 C 142.23949883745604 62.57940805736622 78.75494496627428 C 0.0 **** -0.24
13042 H 142.07557102661 61.69098626074194 78.14337618733191 H 0.0 **** 0.06
13043 H 143.31018520860883 62.75987356005788 78.85304600306961 H 0.0 **** 0.06
13044 H 141.80470319673165 62.424826257594205 79.74287672075957 H 0.0 **** 0.06
13045 H 141.76720901583042 63.43878130571423 78.27954427393459 H 0.0 **** 0.06
13046 C 50.647414193088665 137.34180153840367 83.81803761296761 C 0.0 **** -0.24
13047 H 50.33314515896954 138.0168414011304 83.0212973140035 H 0.0 **** 0.06
13048 H 49.79100334115297 137.09457235800676 84.44438498285523 H 0.0 **** 0.06
13049 H 51.413737102624154 137.82658947531644 84.42353970704949 H 0.0 **** 0.06
13050 H 51.05332675182515 136.4293059694449 83.38103905475344 H 0.0 **** 0.06
13051 C 84.30119956739495 71.2933388184239 134.57869804100528 C 0.0 **** -0.24
13052 H 83.35974812212294 71.4707148989458 135.0983679243449 H 0.0 **** 0.06
13053 H 84.55273631151967 70.23413682647188 134.63584100196033 H 0.0 **** 0.06
13054 H 85.09132614323626 71.88066318713862 135.04767887656692 H 0.0 **** 0.06
13055 H 84.20142284680112 71.58834706937691 133.53415094649915 H 0.0 **** 0.06
13056 C 111.9537413881001 142.7847818764697 72.8033791526683 C 0.0 **** -0.24
13057 H 111.46801975519972 141.99970469397118 72.22400517807 H 0.0 **** 0.06
13058 H 112.40831894014795 142.35018429537274 73.69374149184694 H 0.0 **** 0.06
13059 H 111.21243584323705 143.528381662052 73.09814583918524 H 0.0 **** 0.06
13060 H 112.72360225997139 143.26130467219207 72.19617558302696 H 0.0 **** 0.06
13061 C 56.14416197040396 75.55993006591679 88.96768777961069 C 0.0 **** -0.24
13062 H 55.17021913639951 75.59769711191777 88.48169722549747 H 0.0 **** 0.06
13063 H 56.52429769507424 74.53823918803675 88.94189015504521 H 0.0 **** 0.06
13064 H 56.045463836205386 75.88420295209146 90.00398247733666 H 0.0 **** 0.06
13065 H 56.83696052543655 76.219416475279 88.44560760725092 H 0.0 **** 0.06
13066 C 110.20740319830516 14.994097837653712 30.71759938364775 C 0.0 **** -0.24
13067 H 110.12209718908888 13.90729425395218 30.73441538370733 H 0.0 **** 0.06
13068 H 109.69917304873032 15.410748952819489 31.587282582257814 H 0.0 **** 0.06
13069 H 109.74718487012207 15.380962958978117 29.807673879707778 H 0.0 **** 0.06
13070 H 111.25955670362778 15.27553270685479 30.741099479598518 H 0.0 **** 0.06
13071 C 29.992992942627154 47.49084509861029 84.81656194116422 C 0.0 **** -0.24
13072 H 29.019124336048463 47.008809841935886 84.89412345037496 H 0.0 **** 0.06
13073 H 29.860783608947344 48.535156531249925 84.53565061884356 H 0.0 **** 0.06
13074 H 30.590253281981404 46.982592802031775 84.05923136091681 H 0.0 **** 0.06
13075 H 30.502265394952573 47.435065579082675 85.77888887634344 H 0.0 **** 0.06
13076 C 123.62485640489278 129.4546130566678 52.030612403156354 C 0.0 **** -0.24
13077 H 124.59157902845158 129.91723148024226 51.830129265453934 H 0.0 **** 0.06
13078 H 123.73635010165792 128.3696939637304 52.03780102129819 H 0.0 **** 0.06
13079 H 122.9174035932315 129.7424723868427 51.25289431419273 H 0.0 **** 0.06
13080 H 123.25610980791285 129.78890776702124 53.00024268417195 H 0.0 **** 0.06
13081 C 30.346102159958953 49.929604989167984 102.98934521399354 C 0.0 **** -0.24
13082 H 31.251061702032487 49.62845083031445 102.46108077005087 H 0.0 **** 0.06
13083 H 29.91742714026347 49.06423345324768 103.49611023567721 H 0.0 **** 0.06
13084 H 29.624762656819158 50.32709127627081 102.27489724667254 H 0.0 **** 0.06
13085 H 30.592328604169253 50.69630377118884 103.72325554062515 H 0.0 **** 0.06
13086 C 124.45541553332941 116.51826268084388 40.99333864152618 C 0.0 **** -0.24
13087 H 123.64288959479246 116.20519605931658 40.338369370162525 H 0.0 **** 0.06
13088 H 124.90576397030301 115.6403855381953 41.457945957762206 H 0.0 **** 0.06
13089 H 124.06423906738488 117.17890056362141 41.76696675025701 H 0.0 **** 0.06
13090 H 125.2086759088399 117.04760073289408 40.410306134178455 H 0.0 **** 0.06
13091 C 120.042791876661 108.5918436918193 123.3636499212918 C 0.0 **** -0.24
13092 H 121.03574981534916 108.9487323478922 123.63625750706669 H 0.0 **** 0.06
13093 H 119.36536693893277 108.71901799661624 124.20890911775507 H 0.0 **** 0.06
13094 H 120.09720768449847 107.53627407143982 123.0973181852498 H 0.0 **** 0.06
13095 H 119.67284306786325 109.16335035132896 122.51211487509545 H 0.0 **** 0.06
13096 C 47.57108805697925 83.8207305828935 70.59713066141894 C 0.0 **** -0.24
13097 H 47.820410146955 83.83849554180253 71.6585899610966 H 0.0 **** 0.06
13098 H 48.031531107631395 84.67490004415467 70.10198667503256 H 0.0 **** 0.06
13099 H 46.48827412492494 83.87125135784632 70.47915789525898 H 0.0 **** 0.06
13100 H 47.94228992012927 82.89799474496155 70.15246382349135 H 0.0 **** 0.06
13101 C 70.33549561228511 144.92364655098044 71.08720291261139 C 0.0 **** -0.24
13102 H 69.48982298592803 145.58502185288472 70.89998273503747 H 0.0 **** 0.06
13103 H 70.36342016046054 144.65909794546488 72.14463905149043 H 0.0 **** 0.06
13104 H 71.2606541798223 145.43103050712654 70.81499524546018 H 0.0 **** 0.06
13105 H 70.22796113633156 144.01773176300324 70.48891057486108 H 0.0 **** 0.06
13106 C 55.80389705411433 109.42888700209687 96.68055281208669 C 0.0 **** -0.24
13107 H 56.71750120544438 109.99628608476212 96.50500338087286 H 0.0 **** 0.06
13108 H 55.12096847152566 109.57150519941428 95.84283059374516 H 0.0 **** 0.06
13109 H 55.33073855480768 109.77734429052447 97.59858519078375 H 0.0 **** 0.06
13110 H 56.04637998467943 108.37041243368651 96.77579208294492 H 0.0 **** 0.06
13111 C 50.63176979136129 38.19258492487501 2.8093326979063136 C 0.0 **** -0.24
13112 H 50.583980917225006 37.86190370945809 1.7714786219014513 H 0.0 **** 0.06
13113 H 51.3527171469145 37.581874075410724 3.3529107235732454 H 0.0 **** 0.06
13114 H 49.64855831433806 38.09062051960163 3.2682927532040367 H 0.0 **** 0.06
13115 H 50.9410409411058 39.23791331135732 2.842527217944678 H 0.0 **** 0.06
13116 C 62.648564369974025 7.201324804699851 106.60012814457608 C 0.0 **** -0.24
13117 H 63.013729064397864 6.405364590646542 105.95117901176198 H 0.0 **** 0.06
13118 H 63.20430217678336 8.117330613781263 106.39900441257728 H 0.0 **** 0.06
13119 H 62.78791847263503 6.911878830389924 107.64184757440697 H 0.0 **** 0.06
13120 H 61.58876407450683 7.368943163305289 106.40721020103948 H 0.0 **** 0.06
13121 C 19.786642682351207 0.7992896287120672 45.59141218469324 C 0.0 **** -0.24
13122 H 19.510740964408996 0.28279102069669193 44.6723255157674 H 0.0 **** 0.06
13123 H 20.848630284944704 0.6491043863474886 45.787214758636054 H 0.0 **** 0.06
13124 H 19.20326444915159 0.3987903993335351 46.42080902801959 H 0.0 **** 0.06
13125 H 19.582926535981684 1.864263566056298 45.48497867181416 H 0.0 **** 0.06
13126 C 11.01619343257775 71.64321033440197 132.3096763835436 C 0.0 **** -0.24
13127 H 10.529703067253479 72.33966374807008 131.626752036624 H 0.0 **** 0.06
13128 H 10.48289450481181 70.6924784102338 132.29890734980913 H 0.0 **** 0.06
13129 H 11.005064902424209 72.05525668143699 133.31835959802643 H 0.0 **** 0.06
13130 H 12.048231484965243 71.4850334646099 131.9934304010348 H 0.0 **** 0.06
13131 C 49.033173908596154 10.307155689807686 92.03875727211354 C 0.0 **** -0.24
13132 H 48.28434305031803 10.672915686057692 92.74104343256582 H 0.0 **** 0.06
13133 H 49.955554828567415 10.081070580217443 92.57526629326853 H 0.0 **** 0.06
13134 H 49.229082692975425 11.072202275078823 91.28633156677031 H 0.0 **** 0.06
13135 H 48.66498793900709 9.405160535649578 91.55099228255315 H 0.0 **** 0.06
13136 C 142.0285441855793 92.57503083363996 60.65827252699802 C 0.0 **** -0.24
13137 H 141.26191912147627 91.90541551964579 60.26886628312167 H 0.0 **** 0.06
13138 H 142.30770703140612 93.29391028847162 59.88865815321532 H 0.0 **** 0.06
13139 H 142.90468230030396 91.99397152951123 60.9483501748951 H 0.0 **** 0.06
13140 H 141.64046528319645 93.1047347939846 61.527735772390486 H 0.0 **** 0.06
13141 C 62.856541773817156 110.4474038943133 21.41717570336283 C 0.0 **** -0.24
13142 H 63.24137599631466 111.1540989045255 20.681888900298418 H 0.0 **** 0.06
13143 H 63.268833546244224 109.4576050190981 21.21967227737855 H 0.0 **** 0.06
13144 H 61.76911766129612 110.40906316477482 21.34914111152068 H 0.0 **** 0.06
13145 H 63.14748401091859 110.76946324462212 22.417545300032373 H 0.0 **** 0.06
13146 C 43.19182389475293 133.51451397723847 56.78449109205164 C 0.0 **** -0.24
13147 H 43.97107521892667 133.66313498025448 57.532994353309775 H 0.0 **** 0.06
13148 H 42.6037257661923 132.63296706854456 57.043662126302266 H 0.0 **** 0.06
13149 H 43.65060795382699 133.3711488199137 55.80682629204419 H 0.0 **** 0.06
13150 H 42.542029219809535 134.38929500026 56.757752684769585 H 0.0 **** 0.06
13151 C 35.74260837083898 113.8596557743486 37.11201892694638 C 0.0 **** -0.24
13152 H 36.54881948490936 113.8272785731221 36.37864774819937 H 0.0 **** 0.06
13153 H 36.048687609481476 114.47293074789854 37.95982917898792 H 0.0 **** 0.06
13154 H 35.523304350159265 112.84919449985665 37.45503874898927 H 0.0 **** 0.06
13155 H 34.852345078951544 114.29044806511706 36.65428521515733 H 0.0 **** 0.06
13156 C 75.72970098608849 130.56146128189093 67.92629703351643 C 0.0 **** -0.24
13157 H 75.76367517866484 129.51121468795745 68.21637590556371 H 0.0 **** 0.06
13158 H 76.52534754071839 130.76496288120163 67.20874103553946 H 0.0 **** 0.06
13159 H 75.86629575997635 131.18601367648262 68.80825735234488 H 0.0 **** 0.06
13160 H 74.7646248619001 130.78119194696728 67.47101321559587 H 0.0 **** 0.06
13161 C 92.29343115552498 14.568516580153762 90.897378791323 C 0.0 **** -0.24
13162 H 93.34396130601644 14.498608288991555 90.61664387066978 H 0.0 **** 0.06
13163 H 92.16309771516495 14.198457834747686 91.91393306002264 H 0.0 **** 0.06
13164 H 91.69358578080896 13.96793658439124 90.21273352428854 H 0.0 **** 0.06
13165 H 91.97225234047576 15.608418168735085 90.84525667698604 H 0.0 **** 0.06
13166 C 84.19924975628993 40.002287472962735 82.74695570859656 C 0.0 **** -0.24
13167 H 83.79176117030009 39.036478656015845 83.04603309927988 H 0.0 **** 0.06
13168 H 85.04136934139606 40.25672122882071 83.39053551285193 H 0.0 **** 0.06
13169 H 83.42625721833367 40.765687199305205 82.83920711120516 H 0.0 **** 0.06
13170 H 84.53468810945499 39.94961817184617 81.71184755340632 H 0.0 **** 0.06
13171 C 40.43245013745559 114.18564140636957 19.701755783392727 C 0.0 **** -0.24
13172 H 39.891449829854395 114.09663114465943 18.760277324722693 H 0.0 **** 0.06
13173 H 41.43266489005265 114.57413496219377 19.510718898857533 H 0.0 **** 0.06
13174 H 40.5070452241478 113.20382905181069 20.171595186315415 H 0.0 **** 0.06
13175 H 39.89911935209619 114.86595349900009 20.365736677651455 H 0.0 **** 0.06
13176 C 117.92923117403981 42.7415925016347 62.17332636205424 C 0.0 **** -0.24
13177 H 117.81381166498758 43.07299684407286 63.20527228769332 H 0.0 **** 0.06
13178 H 118.40831660760605 43.52959672915037 61.590412581535304 H 0.0 **** 0.06
13179 H 116.94883640966728 42.52234046749213 61.7501744310663 H 0.0 **** 0.06
13180 H 118.54547908608069 41.84308962912618 62.14570420412056 H 0.0 **** 0.06
13181 C 16.134728716038637 72.58870244096767 87.76079205780735 C 0.0 **** -0.24
13182 H 15.134804812704715 72.15596895887651 87.77073078204558 H 0.0 **** 0.06
13183 H 16.876900113948665 71.79205304679314 87.81851801230653 H 0.0 **** 0.06
13184 H 16.249952826824114 73.25567033505655 88.61647671104984 H 0.0 **** 0.06
13185 H 16.27722177465111 73.15313581530782 86.83966201345612 H 0.0 **** 0.06
13186 C 47.01789981287715 38.2443808459489 36.876666507232756 C 0.0 **** -0.24
13187 H 47.927281942110596 38.843971372410046 36.89811853447634 H 0.0 **** 0.06
13188 H 46.48920537775467 38.4172611311467 35.93915783658662 H 0.0 **** 0.06
13189 H 46.377477867575806 38.52549641905431 37.712426427110756 H 0.0 **** 0.06
13190 H 47.27693722323676 37.188668376671075 36.95796044667708 H 0.0 **** 0.06
13191 C 40.701800005186016 10.47085514813105 12.172631449899605 C 0.0 **** -0.24
13192 H 40.73617193396465 11.520151578337028 12.466237447594516 H 0.0 **** 0.06
13193 H 41.33376366240638 10.316366521356471 11.297786253157348 H 0.0 **** 0.06
13194 H 39.67456763669015 10.194587762360769 11.931907647205541 H 0.0 **** 0.06
13195 H 41.059878254860905 9.851507571475246 12.995230659332002 H 0.0 **** 0.06
13196 C 70.8279525786758 123.217341042902 85.11108653388547 C 0.0 **** -0.24
13197 H 71.43142810953202 122.82205401123935 84.29380974195406 H 0.0 **** 0.06
13198 H 70.56755089189666 124.25553491049777 84.90146683902381 H 0.0 **** 0.06
13199 H 71.39704210675798 123.16593114704426 86.03955842269384 H 0.0 **** 0.06
13200 H 69.91761851236942 122.62683220991022 85.20868802622824 H 0.0 **** 0.06
13201 C 0.202116789261936 137.73800318769509 37.900051754337596 C 0.0 **** -0.24
13202 H 1.1981540013336485 137.84196595981825 37.46974545780239 H 0.0 **** 0.06
13203 H -0.5359849267033212 138.15077221897684 37.212630149014274 H 0.0 **** 0.06
13204 H 0.15833665737733327 138.275487521625 38.84791611041089 H 0.0 **** 0.06
13205 H -0.010570484992001639 136.6825358241096 38.071983993954916 H 0.0 **** 0.06
13206 C 96.6067599618028 60.859920782798625 40.127926289683515 C 0.0 **** -0.24
13207 H 95.69434912075647 60.412707228561686 40.52261147789094 H 0.0 **** 0.06
13208 H 96.57267012789438 61.940705602109645 40.2718673744321 H 0.0 **** 0.06
13209 H 96.68915058882746 60.63758282079455 39.064094298495405 H 0.0 **** 0.06
13210 H 97.46911094927043 60.450363774113384 40.6528221603434 H 0.0 **** 0.06
13211 C 22.46798277615187 17.34831369920292 27.888286988469346 C 0.0 **** -0.24
13212 H 21.94554543073582 17.880950302279246 28.682740481347352 H 0.0 **** 0.06
13213 H 22.474869444396916 17.957339673066997 26.98493390936273 H 0.0 **** 0.06
13214 H 21.957693609751487 16.40585497745826 27.686749223721478 H 0.0 **** 0.06
13215 H 23.49295747589636 17.146374799962217 28.199602663628205 H 0.0 **** 0.06
13216 C 28.399805628676262 125.40725647088283 132.73122219808405 C 0.0 **** -0.24
13217 H 28.395363211881943 124.55911839954052 132.04555242743098 H 0.0 **** 0.06
13218 H 27.63876511595734 126.12536848877782 132.42317441505824 H 0.0 **** 0.06
13219 H 29.379160899430104 125.88463748642499 132.71242101081523 H 0.0 **** 0.06
13220 H 28.183108146397856 125.05878479333253 133.74061486247055 H 0.0 **** 0.06
13221 C 62.83483524236655 13.318714879080993 69.25211585737905 C 0.0 **** -0.24
13222 H 62.86789204563439 12.375524773239377 68.70676407301397 H 0.0 **** 0.06
13223 H 63.799395570554594 13.497436939409326 69.7273828339217 H 0.0 **** 0.06
13224 H 62.056787625611975 13.26926776740028 70.015557994534 H 0.0 **** 0.06
13225 H 62.61407805033264 14.131535301393313 68.56060006006733 H 0.0 **** 0.06
13226 C 58.27406464804314 100.84674099792866 87.55310562748431 C 0.0 **** -0.24
13227 H 59.28764663518754 101.03304733846309 87.90878865999542 H 0.0 **** 0.06
13228 H 58.2607593631071 100.87724128849172 86.46296175621912 H 0.0 **** 0.06
13229 H 57.605158840777136 101.61041579077565 87.9471000824029 H 0.0 **** 0.06
13230 H 57.94488652448551 99.86444721124897 87.89261938961697 H 0.0 **** 0.06
13231 C 85.25233259318493 52.67606690034279 86.86787727899733 C 0.0 **** -0.24
13232 H 85.80990979241209 53.56714317145716 87.15357567560628 H 0.0 **** 0.06
13233 H 85.5193899729907 52.390919630442994 85.85018366268704 H 0.0 **** 0.06
13234 H 84.18372811117743 52.88451104785602 86.91868464056492 H 0.0 **** 0.06
13235 H 85.49573198092739 51.86081215166857 87.5500124392311 H 0.0 **** 0.06
13236 C 47.11864031483532 111.81906636222118 32.327233601818705 C 0.0 **** -0.24
13237 H 46.604328421045295 111.20818352489596 33.06863720281541 H 0.0 **** 0.06
13238 H 48.15960819208888 111.50480568466986 32.256920251533415 H 0.0 **** 0.06
13239 H 47.07347726632244 112.86716894185895 32.624782289165864 H 0.0 **** 0.06
13240 H 46.63546304682541 111.6965239025364 31.357184103316342 H 0.0 **** 0.06
13241 C 48.548342696258445 22.697646001675565 125.34780620432787 C 0.0 **** -0.24
13242 H 49.473023371164274 22.481682100393954 124.81287524883294 H 0.0 **** 0.06
13243 H 48.63775959422905 22.35658753223194 126.37971447593172 H 0.0 **** 0.06
13244 H 47.72026226548786 22.179510658096405 124.86419017818702 H 0.0 **** 0.06
13245 H 48.36308490852275 23.771271386524774 125.33417018098635 H 0.0 **** 0.06
13246 C 15.659812093662993 131.6284745199568 118.705488448751 C 0.0 **** -0.24
13247 H 15.981121366918273 130.97390523796068 119.51591877869186 H 0.0 **** 0.06
13248 H 16.27268882425591 131.4400966262253 117.82339954962492 H 0.0 **** 0.06
13249 H 15.773320955517363 132.66753444611766 119.01149991956112 H 0.0 **** 0.06
13250 H 14.614095262787487 131.42933041114443 118.47208362736882 H 0.0 **** 0.06
13251 C 67.65004234798161 77.84735970534145 39.64408001240347 C 0.0 **** -0.24
13252 H 68.58802982023401 77.40094177863564 39.31150294830683 H 0.0 **** 0.06
13253 H 67.11631998879406 78.25199048902361 38.783160538017086 H 0.0 **** 0.06
13254 H 67.86078112409487 78.64841834132356 40.35152404553366 H 0.0 **** 0.06
13255 H 67.03761618507303 77.0862396179275 40.127498363544696 H 0.0 **** 0.06
13256 C 112.79644827626537 122.05000598658445 94.68491233169183 C 0.0 **** -0.24
13257 H 112.19653987326119 122.87943807026119 94.30904231731547 H 0.0 **** 0.06
13258 H 113.38684612965635 121.62981595303505 93.8709463692887 H 0.0 **** 0.06
13259 H 112.13816424471774 121.28135783775953 95.0904380098779 H 0.0 **** 0.06
13260 H 113.46185607989416 122.40919886906163 95.46973065975965 H 0.0 **** 0.06
13261 C 23.524390924229436 49.930142927836016 140.08505105283191 C 0.0 **** -0.24
13262 H 22.81452667328969 49.15674379593324 139.79222787892357 H 0.0 **** 0.06
13263 H 22.980199538032508 50.79935673975888 140.45609422453882 H 0.0 **** 0.06
13264 H 24.123755610532953 50.21847506863311 139.2221852499553 H 0.0 **** 0.06
13265 H 24.177155223000398 49.54708959370872 140.86939269167092 H 0.0 **** 0.06
13266 C 130.0050609761616 76.98989340437333 52.04102218031227 C 0.0 **** -0.24
13267 H 130.4710199274028 76.0611437515289 52.36862893732365 H 0.0 **** 0.06
13268 H 128.96257020583806 76.802021222098 51.78133391468185 H 0.0 **** 0.06
13269 H 130.53329891617003 77.3723549776318 51.16742173556139 H 0.0 **** 0.06
13270 H 130.0525636596775 77.7243247416996 52.84556368857369 H 0.0 **** 0.06
13271 C 111.82976437387386 23.92077247721886 110.67761336138737 C 0.0 **** -0.24
13272 H 111.59030565094402 23.109262502805677 111.36534078622081 H 0.0 **** 0.06
13273 H 111.08791855678014 24.713149791919335 110.77947548283807 H 0.0 **** 0.06
13274 H 111.8223002359476 23.543478090397144 109.65519118169824 H 0.0 **** 0.06
13275 H 112.81755035869027 24.315326097990067 110.91279653237659 H 0.0 **** 0.06
13276 C 89.69507010505029 136.87470859030913 65.44807929422235 C 0.0 **** -0.24
13277 H 89.69938440108783 137.96451381381326 65.46394911658395 H 0.0 **** 0.06
13278 H 89.94411312283216 136.4953020172576 66.43923676683252 H 0.0 **** 0.06
13279 H 90.43163088392842 136.51863107967012 64.72709318692296 H 0.0 **** 0.06
13280 H 88.70509131469282 136.51918550378403 65.16015346910294 H 0.0 **** 0.06
13281 C 120.87502285856652 39.18875493506518 83.54241620871255 C 0.0 **** -0.24
13282 H 120.43656778364533 38.22079907112986 83.78811430060904 H 0.0 **** 0.06
13283 H 121.92354379353503 39.05512194698778 83.277022252959 H 0.0 **** 0.06
13284 H 120.7989792842398 39.85140772458456 84.40422856087872 H 0.0 **** 0.06
13285 H 120.3393725026097 39.6262959734465 82.69966449332324 H 0.0 **** 0.06
13286 C 33.887057395758376 87.9555393046699 129.5153484821028 C 0.0 **** -0.24
13287 H 34.24256047655754 88.98307166765866 129.44373378103538 H 0.0 **** 0.06
13288 H 34.028028175253695 87.59359312253602 130.5348092158511 H 0.0 **** 0.06
13289 H 34.45050550659852 87.32634221114306 128.82602768681755 H 0.0 **** 0.06
13290 H 32.8288060954749 87.91881333263049 129.25966856509345 H 0.0 **** 0.06
13291 C 131.69027510172558 57.20443696956906 118.75001771399732 C 0.0 **** -0.24
13292 H 132.13892908367814 56.23348193471256 118.95995537585722 H 0.0 **** 0.06
13293 H 131.85786436137224 57.462644952963245 117.70467645522362 H 0.0 **** 0.06
13294 H 132.14645393627572 57.9601618952378 119.3895086106626 H 0.0 **** 0.06
13295 H 130.61957474830334 57.15996572682792 118.94760548759533 H 0.0 **** 0.06
13296 C 50.988054669764495 113.40317105234094 35.83474837696849 C 0.0 **** -0.24
13297 H 52.06758447445206 113.25413791823986 35.86468897098405 H 0.0 **** 0.06
13298 H 50.770417144745196 114.4074640707545 35.471090100094045 H 0.0 **** 0.06
13299 H 50.577246411404204 113.2821558787558 36.83730751131159 H 0.0 **** 0.06
13300 H 50.538953840712836 112.66867882158901 35.165983456781476 H 0.0 **** 0.06
13301 C 120.8126561553873 75.95506018591922 17.727499526012807 C 0.0 **** -0.24
13302 H 120.26302282265281 75.90213038652851 18.667957173754665 H 0.0 **** 0.06
13303 H 121.71854223884661 76.54484048789118 17.87049788716675 H 0.0 **** 0.06
13304 H 120.18858605974641 76.42457900010021 16.96746369011612 H 0.0 **** 0.06
13305 H 121.08128714995759 74.9481397795968 17.40724712116178 H 0.0 **** 0.06
13306 C 77.30385585300712 120.25722890608512 83.56533769287138 C 0.0 **** -0.24
13307 H 76.42985422267716 119.80124263414632 84.03140057098487 H 0.0 **** 0.06
13308 H 77.92876921131128 120.71330468575474 84.33362091140114 H 0.0 **** 0.06
13309 H 76.98076045293075 121.0208494473759 82.85765913793354 H 0.0 **** 0.06
13310 H 77.87496407742137 119.49260102938797 83.03863710586529 H 0.0 **** 0.06
13311 C 74.16766515883674 68.8466611712073 19.11018909751793 C 0.0 **** -0.24
13312 H 73.42079005861461 69.1307003864128 19.851234430482755 H 0.0 **** 0.06
13313 H 75.12850687044764 68.69523032592838 19.60424364312479 H 0.0 **** 0.06
13314 H 74.26202572359955 69.63716568721213 18.36725068280925 H 0.0 **** 0.06
13315 H 73.86115377427961 67.92209410580193 18.62210062075868 H 0.0 **** 0.06
13316 C 139.20461327177048 97.74447970345332 47.78891709681757 C 0.0 **** -0.24
13317 H 138.2019476700039 97.49263645906984 47.442399276430606 H 0.0 **** 0.06
13318 H 139.3397613224247 97.37630950442967 48.80601670564151 H 0.0 **** 0.06
13319 H 139.33183620679418 98.82744950081803 47.77429901996868 H 0.0 **** 0.06
13320 H 139.94225839200305 97.28289506693147 47.13263881230897 H 0.0 **** 0.06
13321 C 1.9146780057750732 55.8413626316142 124.73404522059414 C 0.0 **** -0.24
13322 H 1.6540992752615438 55.811363183886385 123.67677014260798 H 0.0 **** 0.06
13323 H 1.5253614661549584 56.75810064093113 125.17795736434167 H 0.0 **** 0.06
13324 H 2.999343808046145 55.81667577455447 124.84134655159014 H 0.0 **** 0.06
13325 H 1.4799074736375708 54.97931092708464 125.24010682383673 H 0.0 **** 0.06
13326 C 109.45471275922897 29.486482169817066 73.63682616045949 C 0.0 **** -0.24
13327 H 109.18269998076873 30.337966499130403 74.25984248512958 H 0.0 **** 0.06
13328 H 110.05999035095154 29.829582119675166 72.7967241225345 H 0.0 **** 0.06
13329 H 108.54982031619643 29.00839965188237 73.26114452970364 H 0.0 **** 0.06
13330 H 110.02503170232417 28.77025160538281 74.22780073848111 H 0.0 **** 0.06
13331 C 87.86839950202607 44.134673414981165 80.79019021672869 C 0.0 **** -0.24
13332 H 88.85095628454671 43.83690963635357 81.15710822421994 H 0.0 **** 0.06
13333 H 87.13575781261571 43.37101580639066 81.05306689732227 H 0.0 **** 0.06
13334 H 87.9041541785951 44.24672240746807 79.7071276753912 H 0.0 **** 0.06
13335 H 87.58363083264778 45.08345190516519 81.24514195547732 H 0.0 **** 0.06
13336 C 95.79826374963338 85.31344135584622 4.146754361497898 C 0.0 **** -0.24
13337 H 96.15153129818272 84.34944166248681 4.511236838489367 H 0.0 **** 0.06
13338 H 95.94058932351822 85.36809840410679 3.0671169373353564 H 0.0 **** 0.06
13339 H 96.36117638312517 86.11260760296805 4.628044848166951 H 0.0 **** 0.06
13340 H 94.73948635021942 85.42401827963987 4.37974370339785 H 0.0 **** 0.06
13341 C 94.48392596460843 132.51818823284177 118.80670441172664 C 0.0 **** -0.24
13342 H 94.18582265704184 132.65083075077288 117.76709619733866 H 0.0 **** 0.06
13343 H 95.31114409438446 133.18906894232586 119.0366133016838 H 0.0 **** 0.06
13344 H 94.79870681460399 131.48571386645185 118.9658606146409 H 0.0 **** 0.06
13345 H 93.63939354967052 132.744575324156 119.45866901536586 H 0.0 **** 0.06
13346 C 125.34327966047013 48.82260234825242 66.5203542762482 C 0.0 **** -0.24
13347 H 125.96799590015141 49.23428369992237 65.7283208578586 H 0.0 **** 0.06
13348 H 125.76504101706679 47.87584317471118 66.85985299885246 H 0.0 **** 0.06
13349 H 124.33600254852816 48.65526924664081 66.1385711430448 H 0.0 **** 0.06
13350 H 125.30373840812058 49.523352159338685 67.35431895680851 H 0.0 **** 0.06
13351 C 17.10817282086137 77.4575485249726 19.740085426249777 C 0.0 **** -0.24
13352 H 16.528311039174156 77.12586901129745 18.878520611449574 H 0.0 **** 0.06
13353 H 16.62905376971551 78.3282272539787 20.18726923700123 H 0.0 **** 0.06
13354 H 18.115961967444335 77.72194631761049 19.41934292264827 H 0.0 **** 0.06
13355 H 17.159748809187732 76.65358158181492 20.47397298359425 H 0.0 **** 0.06
13356 C 127.5160702573084 110.07718220992815 50.418365360279324 C 0.0 **** -0.24
13357 H 126.81069991456715 110.12582894702466 51.24822323470569 H 0.0 **** 0.06
13358 H 127.88344414996737 109.05610300692972 50.31370591799464 H 0.0 **** 0.06
13359 H 128.35412664304127 110.7467981826956 50.6149306033669 H 0.0 **** 0.06
13360 H 127.01689124455604 110.38116402397152 49.49856796685084 H 0.0 **** 0.06
13361 C 71.75544416225401 103.82729050371293 55.4890113168461 C 0.0 **** -0.24
13362 H 72.56662974585423 104.2776755315574 54.91766891769501 H 0.0 **** 0.06
13363 H 72.1451736998049 102.99960905313839 56.08174330348396 H 0.0 **** 0.06
13364 H 70.99159824655034 103.45723025245348 54.8052250065891 H 0.0 **** 0.06
13365 H 71.31927075655918 104.57422735272158 56.15126197979751 H 0.0 **** 0.06
13366 C 106.88258146353711 114.51919160474577 43.178774367112126 C 0.0 **** -0.24
13367 H 107.64622564199253 114.42803066793928 43.95048422226097 H 0.0 **** 0.06
13368 H 105.93196035839811 114.14942664589907 43.56252202790283 H 0.0 **** 0.06
13369 H 107.17575350705899 113.93289664415258 42.3069433388587 H 0.0 **** 0.06
13370 H 106.77713406697892 115.5660436669244 42.893629644805145 H 0.0 **** 0.06
13371 C 46.91813493506258 6.8121494961238795 14.946190648217986 C 0.0 **** -0.24
13372 H 45.834082428426214 6.901549763823823 14.872796704872691 H 0.0 **** 0.06
13373 H 47.258451736009775 7.275081910534141 15.872238126975368 H 0.0 **** 0.06
13374 H 47.38175806015316 7.313948567980447 14.096562371696677 H 0.0 **** 0.06
13375 H 47.196439432743446 5.757555048527365 14.941933736300683 H 0.0 **** 0.06
13376 C 51.76897160094546 116.2832800263871 64.88674577349705 C 0.0 **** -0.24
13377 H 51.274619873696764 115.54517601344219 64.25333292841152 H 0.0 **** 0.06
13378 H 51.247127133274006 116.34843791156243 65.84199586653412 H 0.0 **** 0.06
13379 H 51.75069968885255 117.25500542983559 64.39374602356062 H 0.0 **** 0.06
13380 H 52.80269441521888 115.98107345407482 65.05574057644509 H 0.0 **** 0.06
13381 C 110.05745139544736 125.91614587555722 134.32054100832949 C 0.0 **** -0.24
13382 H 109.3139433128779 125.13300414769344 134.4706266011791 H 0.0 **** 0.06
13383 H 109.57414518484113 126.80053304576768 133.90603852133597 H 0.0 **** 0.06
13384 H 110.82258961477804 125.56153808276326 133.63062168377854 H 0.0 **** 0.06
13385 H 110.51696091916175 126.16727178535326 135.27639542264083 H 0.0 **** 0.06
13386 C 101.0879674455876 103.96611513388154 42.355111753615844 C 0.0 **** -0.24
13387 H 100.80098890085372 103.01463704356627 41.90810993297205 H 0.0 **** 0.06
13388 H 101.88030830296225 104.42259054692761 41.7609332380611 H 0.0 **** 0.06
13389 H 101.44672454203464 103.79652692356274 43.37041667835685 H 0.0 **** 0.06
13390 H 100.22431077525817 104.63007946790907 42.38161433901999 H 0.0 **** 0.06
13391 C 66.06972747728223 88.70668413395299 25.242489500679625 C 0.0 **** -0.24
13392 H 66.01673608218242 89.11234810852436 24.231708817469183 H 0.0 **** 0.06
13393 H 65.06580404164171 88.46284009630187 25.589206521188203 H 0.0 **** 0.06
13394 H 66.51471139739881 89.4473767624022 25.907804229857135 H 0.0 **** 0.06
13395 H 66.6837392961513 87.80586690216442 25.239898263296055 H 0.0 **** 0.06
13396 C 100.77715010046164 130.26687311207024 33.74877254508695 C 0.0 **** -0.24
13397 H 101.00102553266413 129.38547382604239 34.35055907770671 H 0.0 **** 0.06
13398 H 100.67839133230248 131.13508810061828 34.39894733397098 H 0.0 **** 0.06
13399 H 99.84377755595405 130.10902604793412 33.208404250557905 H 0.0 **** 0.06
13400 H 101.58567881567237 130.43475400172525 33.037156617341225 H 0.0 **** 0.06
13401 C 72.20708894170818 29.919962362832706 65.64254324352754 C 0.0 **** -0.24
13402 H 71.37547142375645 30.33379282119526 66.21334931959557 H 0.0 **** 0.06
13403 H 73.04835860387455 30.612234241118415 65.6729881071404 H 0.0 **** 0.06
13404 H 71.89779178873549 29.770041805787827 64.60807719715996 H 0.0 **** 0.06
13405 H 72.50570762364431 28.96514199748404 66.0743114836372 H 0.0 **** 0.06
13406 C 123.16321063867275 10.330877718532925 24.761126414214786 C 0.0 **** -0.24
13407 H 122.26201290699748 9.718407469482564 24.75605650756134 H 0.0 **** 0.06
13408 H 123.75506450448663 10.113284982338271 23.8711683437037 H 0.0 **** 0.06
13409 H 123.75037100218725 10.105188171212383 25.651836734078437 H 0.0 **** 0.06
13410 H 122.886153058466 11.38431314393005 24.765679275196455 H 0.0 **** 0.06
13411 C 64.0797353264457 46.61055716712099 59.41803972074193 C 0.0 **** -0.24
13412 H 63.18298270516067 46.713571142334644 60.02949272593297 H 0.0 **** 0.06
13413 H 64.56510223761643 47.58184813215365 59.32043983783794 H 0.0 **** 0.06
13414 H 63.804528630181835 46.239869021775746 58.43055985929914 H 0.0 **** 0.06
13415 H 64.76389059517459 45.9071542764996 59.89178839073459 H 0.0 **** 0.06
13416 C 112.81648820575933 8.841273894924115 86.13909197701236 C 0.0 **** -0.24
13417 H 113.1058265643621 8.16328456696084 86.94143768804298 H 0.0 **** 0.06
13418 H 112.5182458074116 9.799908178115032 86.56396807005223 H 0.0 **** 0.06
13419 H 111.98098547250473 8.413512074925137 85.58463736179505 H 0.0 **** 0.06
13420 H 113.6611216501449 8.98978663754562 85.46630954105439 H 0.0 **** 0.06
13421 C 46.3356421850298 11.592450657998171 119.04747577129775 C 0.0 **** -0.24
13422 H 46.42606018784281 10.51199709717011 118.93469017086308 H 0.0 **** 0.06
13423 H 45.36475407970299 11.916734028976606 118.67120786987518 H 0.0 **** 0.06
13424 H 47.12763739758381 12.085031736704167 118.48351180625302 H 0.0 **** 0.06
13425 H 46.42297515179665 11.855438568898961 120.10164853068848 H 0.0 **** 0.06
13426 C 43.8580016634517 73.65038850808267 15.400718143775187 C 0.0 **** -0.24
13427 H 44.08012705794367 74.29883461291706 16.24829814562922 H 0.0 **** 0.06
13428 H 44.75043636398031 73.08347560997723 15.133285867913017 H 0.0 **** 0.06
13429 H 43.54569882672669 74.25812561730478 14.551708471938142 H 0.0 **** 0.06
13430 H 43.05667328175133 72.96296273751614 15.670437445442325 H 0.0 **** 0.06
13431 C 11.659327217630874 20.720260578484414 18.264412940101124 C 0.0 **** -0.24
13432 H 12.150477130752677 20.05458062808418 18.97342621026968 H 0.0 **** 0.06
13433 H 11.111978093568865 21.489965645608777 18.808232697225378 H 0.0 **** 0.06
13434 H 10.966060155048524 20.147024452750003 17.64753443274941 H 0.0 **** 0.06
13435 H 12.409559868432638 21.188561861226006 17.626850552407518 H 0.0 **** 0.06
13436 C 59.63352927114833 76.99567960817868 78.61642667268165 C 0.0 **** -0.24
13437 H 58.590885660674815 77.11694181736705 78.32161367809137 H 0.0 **** 0.06
13438 H 59.88298886822491 75.93404619079678 78.6388402179816 H 0.0 **** 0.06
13439 H 59.78472579018096 77.42685948272349 79.60538944700538 H 0.0 **** 0.06
13440 H 60.27513666479706 77.50445518646546 77.89577881419625 H 0.0 **** 0.06
13441 C 108.20594594347897 93.69002812747641 84.57803073605393 C 0.0 **** -0.24
13442 H 108.5258189207422 94.73210432116502 84.5663948698969 H 0.0 **** 0.06
13443 H 108.79836650411504 93.12048173529104 83.8614424893596 H 0.0 **** 0.06
13444 H 107.15191050100894 93.63069589506512 84.30844433303389 H 0.0 **** 0.06
13445 H 108.3498477849907 93.27778509326211 85.57769163802433 H 0.0 **** 0.06
13446 C 45.74761544200747 39.7946149720386 121.25253705097548 C 0.0 **** -0.24
13447 H 46.38974347514328 39.47942719099413 122.07519199844914 H 0.0 **** 0.06
13448 H 44.753621735099074 39.36667361591813 121.38371484726527 H 0.0 **** 0.06
13449 H 46.17075383793545 39.45098510479116 120.30899411183141 H 0.0 **** 0.06
13450 H 45.677670169634496 40.88269410373246 121.24516197880006 H 0.0 **** 0.06
13451 C 89.75380844649294 63.36816593047811 122.35368385871509 C 0.0 **** -0.24
13452 H 89.0767158408529 63.977430655637676 121.75404393045311 H 0.0 **** 0.06
13453 H 89.44053360705465 62.3253006728648 122.30739330977427 H 0.0 **** 0.06
13454 H 89.72932822275794 63.71065175619776 123.3880165220385 H 0.0 **** 0.06
13455 H 90.767273105134 63.46125756384335 121.96380539571875 H 0.0 **** 0.06
13456 C 118.48489530187196 43.82298374405886 22.52473096811275 C 0.0 **** -0.24
13457 H 118.87562048282778 43.061810908429976 23.20022682619441 H 0.0 **** 0.06
13458 H 117.64774043260483 43.41172278645146 21.95924788494756 H 0.0 **** 0.06
13459 H 119.26980255483367 44.13410935663288 21.836424866030825 H 0.0 **** 0.06
13460 H 118.14600033768143 44.68220438216582 23.10370851900882 H 0.0 **** 0.06
13461 C 94.6257960209897 121.3135849860529 121.10399862874054 C 0.0 **** -0.24
13462 H 94.44925643070049 122.38745230919439 121.17048675761477 H 0.0 **** 0.06
13463 H 94.13946166809946 120.92058317378216 120.21176809627202 H 0.0 **** 0.06
13464 H 94.21619605083367 120.8233982583592 121.98712813634909 H 0.0 **** 0.06
13465 H 95.69781444368664 121.1244357480076 121.0481778064307 H 0.0 **** 0.06
13466 C 4.286963735989701 82.11185137573253 59.70069177950515 C 0.0 **** -0.24
13467 H 3.5690362864541214 81.3386950350463 59.97526484334625 H 0.0 **** 0.06
13468 H 5.159083436714894 81.64933988563473 59.238715331932184 H 0.0 **** 0.06
13469 H 4.593087527982647 82.65645330896271 60.59350633189209 H 0.0 **** 0.06
13470 H 3.8239437126655957 82.80182358864701 58.99457865754644 H 0.0 **** 0.06
13471 C 105.06346177381427 115.11578787785572 10.878943659109808 C 0.0 **** -0.24
13472 H 104.72308512941014 115.83325785256284 10.132454904077747 H 0.0 **** 0.06
13473 H 106.1303613809845 114.93288672186156 10.747188830785376 H 0.0 **** 0.06
13474 H 104.51724687533468 114.18065095901659 10.757403121209478 H 0.0 **** 0.06
13475 H 104.88329156261788 115.51581691584965 11.876561994838653 H 0.0 **** 0.06
13476 C 142.10473154609062 113.5244246154321 141.81765354922567 C 0.0 **** -0.24
13477 H 143.15097319694314 113.54672103380476 142.1233383448009 H 0.0 **** 0.06
13478 H 142.01020343021042 112.96188347924043 140.88858421826984 H 0.0 **** 0.06
13479 H 141.7487527873837 114.5426271740999 141.66408427193235 H 0.0 **** 0.06
13480 H 141.5100058886404 113.04424096587236 142.59477384580575 H 0.0 **** 0.06
13481 C 101.52000914438145 2.641205606696957 26.793253836466945 C 0.0 **** -0.24
13482 H 101.62505659770994 2.998079602903374 27.818118172707074 H 0.0 **** 0.06
13483 H 102.44361649305984 2.1519436273979693 26.48344407074441 H 0.0 **** 0.06
13484 H 101.3168369754552 3.4854470935561324 26.134306734031043 H 0.0 **** 0.06
13485 H 100.69545025321582 1.9311736611928723 26.738498732413206 H 0.0 **** 0.06
13486 C 6.873326518910233 2.4281627262149073 59.03606451871997 C 0.0 **** -0.24
13487 H 6.7459803068989 2.8694403340936674 58.04724201788167 H 0.0 **** 0.06
13488 H 6.257087054859426 1.5320918856839967 59.115556077357326 H 0.0 **** 0.06
13489 H 6.567871027099443 3.1469910504361565 59.795504852721024 H 0.0 **** 0.06
13490 H 7.9195314603513225 2.164414753884728 59.183986902757795 H 0.0 **** 0.06
13491 C 2.7510870219621495 56.71456198037566 90.26391106772967 C 0.0 **** -0.24
13492 H 2.0052639974763906 57.49118177622471 90.09648772557459 H 0.0 **** 0.06
13493 H 2.450212605151279 55.80368285096628 89.74597023112412 H 0.0 **** 0.06
13494 H 2.8345128866294544 56.51513409399125 91.33221324184916 H 0.0 **** 0.06
13495 H 3.71607396628346 57.04913484552564 89.88045027128058 H 0.0 **** 0.06
13496 C 125.84068797270365 125.84065133819882 59.919515493431106 C 0.0 **** -0.24
13497 H 125.75134466286991 124.91055461742266 59.357392018929716 H 0.0 **** 0.06
13498 H 126.46213589151236 125.67519099719674 60.799319014398236 H 0.0 **** 0.06
13499 H 124.85002981669695 126.17242563199137 60.23071180106734 H 0.0 **** 0.06
13500 H 126.29736966840031 126.60325814644273 59.28861091734785 H 0.0 **** 0.06
13501 C 11.965918458262664 117.00962192757606 117.82200438811525 C 0.0 **** -0.24
13502 H 11.17765235952605 116.79748518752496 118.54393751072776 H 0.0 **** 0.06
13503 H 11.80376688986108 117.995785587934 117.38637493392726 H 0.0 **** 0.06
13504 H 11.949119473408196 116.25728178379228 117.03408881193572 H 0.0 **** 0.06
13505 H 12.93338609506921 116.98924454050143 118.32408809377169 H 0.0 **** 0.06
13506 C 33.66393653503034 53.101927126906105 138.06273213615128 C 0.0 **** -0.24
13507 H 33.30901763744398 52.60217889448562 137.16102807904008 H 0.0 **** 0.06
13508 H 33.095985900912424 54.019091431401506 138.21698059837763 H 0.0 **** 0.06
13509 H 34.721501652156824 53.34263614043142 137.9519480464279 H 0.0 **** 0.06
13510 H 33.5297828731283 52.44195838700129 138.9198283715417 H 0.0 **** 0.06
13511 C 124.23616309893663 126.76426121421642 18.90965847174671 C 0.0 **** -0.24
13512 H 123.57081907859111 126.85580275151005 19.76776064944241 H 0.0 **** 0.06
13513 H 124.60026752126419 127.7523811612009 18.625621672788782 H 0.0 **** 0.06
13514 H 123.69140072908152 126.3241301288881 18.07398717498353 H 0.0 **** 0.06
13515 H 125.0802520186864 126.12606836006435 19.17052177083673 H 0.0 **** 0.06
13516 C 132.3167470157566 145.08323203490053 19.99470818083328 C 0.0 **** -0.24
13517 H 132.4357176861075 145.05903932354292 18.911648822512227 H 0.0 **** 0.06
13518 H 131.28679041642644 144.83658526357115 20.252438017473914 H 0.0 **** 0.06
13519 H 132.55555188136333 146.08015701857093 20.364062583682056 H 0.0 **** 0.06
13520 H 132.98928096330027 144.35508515164955 20.44989184889632 H 0.0 **** 0.06
13521 C 56.39804144690845 93.13007914322182 89.26437313729181 C 0.0 **** -0.24
13522 H 56.22964776040331 92.05366655001355 89.22476994039678 H 0.0 **** 0.06
13523 H 56.03400930485401 93.51871710896916 90.21563863303467 H 0.0 **** 0.06
13524 H 55.86352885873946 93.6122197848974 88.44556570371316 H 0.0 **** 0.06
13525 H 57.46471918230972 93.33369071727775 89.17287553328501 H 0.0 **** 0.06
13526 C 33.552145596668794 58.4329674895842 112.20537142637305 C 0.0 **** -0.24
13527 H 32.719052824150374 58.78751190597367 112.81246334239516 H 0.0 **** 0.06
13528 H 33.762019214720354 59.15721870008315 111.41845711549418 H 0.0 **** 0.06
13529 H 33.29374553354608 57.4732737021648 111.75784697298552 H 0.0 **** 0.06
13530 H 34.4344668188536 58.313818509902006 112.83484081690365 H 0.0 **** 0.06
13531 C 46.973926853462444 59.22897727727599 39.417897838893325 C 0.0 **** -0.24
13532 H 46.84747588071343 59.73808696962459 38.46242917426119 H 0.0 **** 0.06
13533 H 46.4199730592137 58.290223608648944 39.40566479557066 H 0.0 **** 0.06
13534 H 46.59753784762961 59.863848568818185 40.219555886061784 H 0.0 **** 0.06
13535 H 48.032405514332936 59.02453772711448 39.58158757283803 H 0.0 **** 0.06
13536 C 30.991405046830096 93.26602655592109 121.06938424884228 C 0.0 **** -0.24
13537 H 30.814686662140943 92.80706742718638 122.04189646339509 H 0.0 **** 0.06
13538 H 30.5560445518504 92.64209372084494 120.28867305796038 H 0.0 **** 0.06
13539 H 32.06449032432734 93.36121937020147 120.90283029064133 H 0.0 **** 0.06
13540 H 30.531286548719315 94.25365054650655 121.04459108744467 H 0.0 **** 0.06
13541 C 26.56298203034447 38.61568431956185 13.482176460005626 C 0.0 **** -0.24
13542 H 26.72195696930325 39.1305974585139 14.430267898760668 H 0.0 **** 0.06
13543 H 26.833544893490256 39.27826776871874 12.659665162499913 H 0.0 **** 0.06
13544 H 25.51401064484685 38.33437764772771 13.393291965093972 H 0.0 **** 0.06
13545 H 27.183962991374898 37.719602521154044 13.4473766499123 H 0.0 **** 0.06
13546 C 110.0043650513963 8.27099166662589 108.83969113996119 C 0.0 **** -0.24
13547 H 109.54346299214082 7.331155181737159 108.53675625711173 H 0.0 **** 0.06
13548 H 109.2566223398337 9.064272706664667 108.8237239864527 H 0.0 **** 0.06
13549 H 110.8112598540067 8.5182450507412 108.14889920676256 H 0.0 **** 0.06
13550 H 110.40672078400054 8.171010701927656 109.84761899182774 H 0.0 **** 0.06
13551 C 28.62262572286585 36.84632732962267 109.14895649507272 C 0.0 **** -0.24
13552 H 28.34118285857172 36.210100631044654 109.9880359884717 H 0.0 **** 0.06
13553 H 29.336942270904657 37.5970526628887 109.48721711407015 H 0.0 **** 0.06
13554 H 27.734506054870984 37.34102251505823 108.7538855027652 H 0.0 **** 0.06
13555 H 29.07723909394086 36.23711496181921 108.36795210575323 H 0.0 **** 0.06
13556 C 100.49930325375449 113.07675502153238 72.7546699801411 C 0.0 **** -0.24
13557 H 101.08229876022881 112.15994049529193 72.67379222648827 H 0.0 **** 0.06
13558 H 100.92948940582984 113.71305904266531 73.52984098253486 H 0.0 **** 0.06
13559 H 99.46986176285967 112.83118288954493 73.0166040669114 H 0.0 **** 0.06
13560 H 100.51653705621042 113.6045663893738 71.80110034151454 H 0.0 **** 0.06
13561 C 124.1334794432121 129.92634349557048 43.42799707740636 C 0.0 **** -0.24
13562 H 124.56204157192619 129.86405811817994 42.42713695688738 H 0.0 **** 0.06
13563 H 124.93258785912104 130.06234733374964 44.15740754902245 H 0.0 **** 0.06
13564 H 123.59216968194097 129.00685856405462 43.64914876246149 H 0.0 **** 0.06
13565 H 123.44893511982717 130.77282699679475 43.47786316721988 H 0.0 **** 0.06
13566 C 21.470164684856442 138.04369801614433 56.09860461911819 C 0.0 **** -0.24
13567 H 21.42120825887831 137.4090035503731 55.21337688961762 H 0.0 **** 0.06
13568 H 20.882894042449443 138.94763041341264 55.929668489878566 H 0.0 **** 0.06
13569 H 22.50773405934067 138.3148951218889 56.293229422038365 H 0.0 **** 0.06
13570 H 21.068813693212398 137.5035320996412 56.955328031486786 H 0.0 **** 0.06
13571 C 130.4312192140836 26.511166415885043 139.41126120608322 C 0.0 **** -0.24
13572 H 130.51452188908655 25.47882511899431 139.74941643682732 H 0.0 **** 0.06
13573 H 131.11507322745942 26.677416084302052 138.5787093174772 H 0.0 **** 0.06
13574 H 130.68504878887714 27.18385166053085 140.23070371104225 H 0.0 **** 0.06
13575 H 129.40883200682475 26.705272858374855 139.08497139425018 H 0.0 **** 0.06
13576 C 68.07976703728148 71.54966292934853 61.78927150923849 C 0.0 **** -0.24
13577 H 67.13635425639563 72.08618858177802 61.69394891864812 H 0.0 **** 0.06
13578 H 68.77250566968586 71.89471777375475 61.021253756537305 H 0.0 **** 0.06
13579 H 67.90382606816145 70.48105644341585 61.666000066245886 H 0.0 **** 0.06
13580 H 68.50636680764232 71.73677960741084 62.77415365075569 H 0.0 **** 0.06
13581 C 29.141503014953003 26.974839728361303 7.9379990511881715 C 0.0 **** -0.24
13582 H 29.24500095416522 28.036956990792987 8.160649013871193 H 0.0 **** 0.06
13583 H 28.108773407928993 26.66743121618532 8.104057727072473 H 0.0 **** 0.06
13584 H 29.800289198501105 26.401359419813275 8.590238274868739 H 0.0 **** 0.06
13585 H 29.412385720350926 26.793769110212565 6.897936611487353 H 0.0 **** 0.06
13586 C 49.61084556990659 111.09439868537416 72.33727251349598 C 0.0 **** -0.24
13587 H 49.18407039528148 111.58627875896073 73.21105727947923 H 0.0 **** 0.06
13588 H 50.1726769690226 110.21532455509075 72.65383383805568 H 0.0 **** 0.06
13589 H 50.27652701561058 111.78473143944015 71.82029403431102 H 0.0 **** 0.06
13590 H 48.809807562427125 110.78987955316043 71.66383944590086 H 0.0 **** 0.06
13591 C 36.202624705778234 19.590633040382897 6.907706504181817 C 0.0 **** -0.24
13592 H 35.882267583169764 20.631604399046722 6.923061316091349 H 0.0 **** 0.06
13593 H 36.67216240444551 19.340493658207066 7.859289162057365 H 0.0 **** 0.06
13594 H 36.9189177150707 19.443894311769697 6.099174515443053 H 0.0 **** 0.06
13595 H 35.33759948906902 18.946172271578433 6.748011069147594 H 0.0 **** 0.06
13596 C 90.4220666663432 29.10844405304664 108.26711481807592 C 0.0 **** -0.24
13597 H 89.876319165687 28.215444536841375 108.5720548673196 H 0.0 **** 0.06
13598 H 89.7147851829854 29.907347492272947 108.04229681315218 H 0.0 **** 0.06
13599 H 91.01305854184466 28.886246896129194 107.37883901384168 H 0.0 **** 0.06
13600 H 91.0823957495252 29.423457834673172 109.07460084318564 H 0.0 **** 0.06
13601 C 100.33508676751977 116.62622252690927 36.604942104203616 C 0.0 **** -0.24
13602 H 99.4567572601857 116.29575660156796 37.159953339773836 H 0.0 **** 0.06
13603 H 100.9585591322844 115.76455099285222 36.365429486023686 H 0.0 **** 0.06
13604 H 100.90524627569808 117.32958302537658 37.21266908709828 H 0.0 **** 0.06
13605 H 100.01930897644291 117.11550987273525 35.68384105005731 H 0.0 **** 0.06
13606 C 122.50738292847352 39.93428655316869 92.28831118872135 C 0.0 **** -0.24
13607 H 123.48729796083862 39.98118691375064 92.76292235998135 H 0.0 **** 0.06
13608 H 121.77593301082636 39.55447978377778 93.00211561733725 H 0.0 **** 0.06
13609 H 122.55330169596256 39.269789882577285 91.42590495747257 H 0.0 **** 0.06
13610 H 122.21356519707923 40.932847881324626 91.96288321534814 H 0.0 **** 0.06
13611 C 2.1573884892204944 103.95677403440044 110.71709165856555 C 0.0 **** -0.24
13612 H 2.664724216596113 104.6430227902617 110.03964869841667 H 0.0 **** 0.06
13613 H 1.0848571325128376 103.9793295109765 110.52207968724895 H 0.0 **** 0.06
13614 H 2.3454479408040925 104.25889204589267 111.74779786563948 H 0.0 **** 0.06
13615 H 2.5345844224893312 102.94627304779326 110.56051940129913 H 0.0 **** 0.06
13616 C 80.46148908834486 14.412972791480009 97.4944661111065 C 0.0 **** -0.24
13617 H 79.55721419379144 13.939920809823207 97.87651663895414 H 0.0 **** 0.06
13618 H 81.31927864815627 14.088955329456496 98.08437007046902 H 0.0 **** 0.06
13619 H 80.36184025805524 15.496623923492692 97.56254888750837 H 0.0 **** 0.06
13620 H 80.60765195199934 14.126489786064468 96.4521950935956 H 0.0 **** 0.06
13621 C 51.56828679005136 54.62435292285937 4.779263824609586 C 0.0 **** -0.24
13622 H 51.43715462855218 53.542400890977376 4.77824358862722 H 0.0 **** 0.06
13623 H 50.77645474527506 55.08645496001316 5.3690677155456115 H 0.0 **** 0.06
13624 H 51.524519429519756 54.99675087408278 3.7558650394590813 H 0.0 **** 0.06
13625 H 52.53699255767938 54.87193199256788 5.2135847266815745 H 0.0 **** 0.06
13626 C 109.69625441675804 22.03823141111522 50.49274013683495 C 0.0 **** -0.24
13627 H 109.21255421757762 21.259309206753016 49.90322489686238 H 0.0 **** 0.06
13628 H 109.19646320548533 22.12664639777833 51.45776524829216 H 0.0 **** 0.06
13629 H 109.63269129145748 22.987942868132023 49.961516287780825 H 0.0 **** 0.06
13630 H 110.74289889454833 21.777673975708183 50.64842582703838 H 0.0 **** 0.06
13631 C 31.756106015325628 36.61800395127199 71.23672638488547 C 0.0 **** -0.24
13632 H 30.75606053272469 36.18400094180379 71.21555206846344 H 0.0 **** 0.06
13633 H 31.867948972916082 37.31344978159535 70.40433453793874 H 0.0 **** 0.06
13634 H 32.49853789470254 35.82453347812998 71.15106769757199 H 0.0 **** 0.06
13635 H 31.899736307682332 37.14995369212079 72.1771399658779 H 0.0 **** 0.06
13636 C 104.759762743687 118.51666467371872 6.2448403436487645 C 0.0 **** -0.24
13637 H 105.53782831022961 117.96900073727572 5.712791383294427 H 0.0 **** 0.06
13638 H 104.75211737178812 118.21101526510999 7.2913602474883135 H 0.0 **** 0.06
13639 H 103.79033511161754 118.30002437857426 5.795370685902043 H 0.0 **** 0.06
13640 H 104.95959740252627 119.58607988799385 6.179678291177243 H 0.0 **** 0.06
13641 C 58.41860305222292 41.44860135297033 96.16539868940919 C 0.0 **** -0.24
13642 H 58.92596806503951 40.90546161506312 95.36852741017906 H 0.0 **** 0.06
13643 H 58.386413523489125 42.50960312640234 95.91812564435304 H 0.0 **** 0.06
13644 H 58.960275261621405 41.3100429237233 97.1008438543245 H 0.0 **** 0.06
13645 H 57.403083881162104 41.06929103561268 96.2736130080805 H 0.0 **** 0.06
13646 C 79.51700273897109 84.59394047075074 33.92643314617702 C 0.0 **** -0.24
13647 H 79.04075375139044 85.3060913312867 33.25223957764585 H 0.0 **** 0.06
13648 H 80.40830482817586 84.18429431757889 33.451030666932866 H 0.0 **** 0.06
13649 H 78.82051708166483 83.78533345244455 34.15131617581852 H 0.0 **** 0.06
13650 H 79.79708661622277 85.0998132509886 34.850083849294876 H 0.0 **** 0.06
13651 C 47.44912877661926 6.628452296021607 63.10434405058217 C 0.0 **** -0.24
13652 H 46.875390443931764 7.451113224149111 63.530919027679175 H 0.0 **** 0.06
13653 H 47.80936295187732 6.912512461253044 62.11511045887113 H 0.0 **** 0.06
13654 H 46.81402238360373 5.747189721630491 63.021097494870304 H 0.0 **** 0.06
13655 H 48.29905643127266 6.405056266201285 63.7501413454564 H 0.0 **** 0.06
13656 C 93.82708803562093 119.03021735025168 85.23975839867309 C 0.0 **** -0.24
13657 H 92.74566609599445 119.17170156029947 85.26807445264224 H 0.0 **** 0.06
13658 H 94.10409403294493 118.53423763833327 84.30962739221825 H 0.0 **** 0.06
13659 H 94.1337839335807 118.4138642876185 86.08555593843735 H 0.0 **** 0.06
13660 H 94.32110473443926 119.99921945797043 85.29798415699022 H 0.0 **** 0.06
13661 C 6.5540620496067845 0.5781531215875191 76.67100758573861 C 0.0 **** -0.24
13662 H 7.407037934396101 0.2689462032919323 77.27516081246955 H 0.0 **** 0.06
13663 H 6.667937499435368 0.19237660751275598 75.65721331487134 H 0.0 **** 0.06
13664 H 6.504467427072086 1.6663530013719026 76.64171142509036 H 0.0 **** 0.06
13665 H 5.6376839883348 0.18419833140308128 77.10864750344967 H 0.0 **** 0.06
13666 C 80.73162629171698 115.33653832184217 105.87881345574041 C 0.0 **** -0.24
13667 H 80.83323822092633 115.87312949808614 104.93594136199007 H 0.0 **** 0.06
13668 H 80.74771966611884 116.04869792987887 106.7053530503243 H 0.0 **** 0.06
13669 H 81.55777098229618 114.63352984409426 105.98750083482147 H 0.0 **** 0.06
13670 H 79.78785010989235 114.79206422705897 105.8870800885422 H 0.0 **** 0.06
13671 C 132.11518553377337 44.09974573348073 38.61980863759496 C 0.0 **** -0.24
13672 H 131.53626587056482 45.00103199219072 38.417116705489235 H 0.0 **** 0.06
13673 H 132.43038363004638 44.09863929984746 39.66334629476148 H 0.0 **** 0.06
13674 H 132.9931644364325 44.079696465187524 37.97494281743974 H 0.0 **** 0.06
13675 H 131.49989515792674 43.22155181103679 38.424916178150966 H 0.0 **** 0.06
13676 C 94.84046748720148 104.29937141089367 140.38882198996933 C 0.0 **** -0.24
13677 H 94.03192719498868 104.42389012576825 139.66766414682417 H 0.0 **** 0.06
13678 H 94.94170130531526 105.20902917853432 140.98099204060424 H 0.0 **** 0.06
13679 H 95.7722379203038 104.10412340308092 139.86001590262157 H 0.0 **** 0.06
13680 H 94.61302929008603 103.46062228519246 141.04696534761976 H 0.0 **** 0.06
13681 C 81.800519320708 27.14994398847992 82.30667349724618 C 0.0 **** -0.24
13682 H 80.95413405321949 27.836327437280744 82.29752945383038 H 0.0 **** 0.06
13683 H 82.72099162915126 27.70559364176475 82.13156773950587 H 0.0 **** 0.06
13684 H 81.67083148452798 26.403500635431755 81.52242333088819 H 0.0 **** 0.06
13685 H 81.85413119027265 26.65244935081384 83.2758183860615 H 0.0 **** 0.06
13686 C 2.2704767946582365 128.3533299749929 113.6645752213389 C 0.0 **** -0.24
13687 H 1.432087100453714 129.03882921814986 113.79113128077906 H 0.0 **** 0.06
13688 H 2.988839878060219 128.50563289876504 114.47055303030372 H 0.0 **** 0.06
13689 H 2.752795096435648 128.54405229098032 112.70580989225387 H 0.0 **** 0.06
13690 H 1.906883369984314 127.32614824042375 113.69009767498055 H 0.0 **** 0.06
13691 C 61.91006169020977 54.11943813927158 61.54198268178055 C 0.0 **** -0.24
13692 H 62.55372897631068 53.361119132225895 61.095044600220206 H 0.0 **** 0.06
13693 H 62.02792397158166 54.10235827602837 62.62581370688764 H 0.0 **** 0.06
13694 H 60.87171175496114 53.91115849156682 61.28492650880662 H 0.0 **** 0.06
13695 H 62.18826951742703 55.101459556618266 61.16157215851348 H 0.0 **** 0.06
13696 C 78.72863912167536 132.91493750327464 51.9025411730982 C 0.0 **** -0.24
13697 H 78.07059057558125 132.68126741391652 51.065236376001224 H 0.0 **** 0.06
13698 H 78.52530156499871 133.92792004313293 52.25216122230347 H 0.0 **** 0.06
13699 H 79.76664184405546 132.84343706981954 51.57872192876033 H 0.0 **** 0.06
13700 H 78.54950231626762 132.2080754746827 52.71210953468557 H 0.0 **** 0.06
13701 C 86.91397145706736 46.1134910831109 48.57178557679079 C 0.0 **** -0.24
13702 H 85.85654071795464 46.0383944755021 48.31508984764096 H 0.0 **** 0.06
13703 H 87.33517500535733 45.1127315507632 48.668091497241136 H 0.0 **** 0.06
13704 H 87.0213936966393 46.6465201305125 49.516378814830645 H 0.0 **** 0.06
13705 H 87.4397550303294 46.65521640702826 47.78629455081199 H 0.0 **** 0.06
13706 C 81.78781443437202 88.95237960458569 53.858490293358514 C 0.0 **** -0.24
13707 H 82.64144942691364 88.62856674457797 54.453602392300866 H 0.0 **** 0.06
13708 H 81.30466048530009 88.08220585523092 53.41374450242333 H 0.0 **** 0.06
13709 H 82.13002194914682 89.62194142172443 53.06806637075148 H 0.0 **** 0.06
13710 H 81.07751364810616 89.4767749658359 54.496474718238346 H 0.0 **** 0.06
13711 C 140.39895627753637 82.31461721742653 114.33153290954864 C 0.0 **** -0.24
13712 H 140.32286774627832 81.23601932732583 114.4650019102282 H 0.0 **** 0.06
13713 H 140.6250546604183 82.78388570639675 115.28916515401032 H 0.0 **** 0.06
13714 H 139.454120623116 82.70132960191279 113.95107533441028 H 0.0 **** 0.06
13715 H 141.19504560722086 82.53660018040262 113.62092877576315 H 0.0 **** 0.06
13716 C 130.42603569622867 122.72147001543226 83.56256900970925 C 0.0 **** -0.24
13717 H 131.16441755845068 123.48739337939821 83.32588036981531 H 0.0 **** 0.06
13718 H 129.56836808437566 122.82540924417856 82.89830642562382 H 0.0 **** 0.06
13719 H 130.10161150339286 122.83647947396457 84.5971214218373 H 0.0 **** 0.06
13720 H 130.8718915865295 121.73456621013054 83.42948480945529 H 0.0 **** 0.06
13721 C 0.35860426532062206 65.80392992270977 67.1400289350527 C 0.0 **** -0.24
13722 H 0.046092047654468615 65.18480702641448 66.29926985028524 H 0.0 **** 0.06
13723 H 1.0650103068154522 65.24743695739772 67.75752959371897 H 0.0 **** 0.06
13724 H -0.5127141735322027 66.07345052514508 67.73743980465562 H 0.0 **** 0.06
13725 H 0.8378485836044547 66.70970820419716 66.76713681833522 H 0.0 **** 0.06
13726 C 31.216112334424253 105.45399344977305 59.644035365575405 C 0.0 **** -0.24
13727 H 31.053596259005957 104.39025248729256 59.82086476197264 H 0.0 **** 0.06
13728 H 30.254770049685874 105.9672254146471 59.609685879206936 H 0.0 **** 0.06
13729 H 31.734438639964225 105.58859379451239 58.69565231957631 H 0.0 **** 0.06
13730 H 31.821180278342382 105.86797347903634 60.451375607786275 H 0.0 **** 0.06
13731 C 36.00347781964793 48.66840583501221 135.7182647194057 C 0.0 **** -0.24
13732 H 35.776158822062214 49.71684944589907 135.91437953239907 H 0.0 **** 0.06
13733 H 37.081800432689704 48.51652206936876 135.76353669118328 H 0.0 **** 0.06
13734 H 35.639572763030145 48.39781609851809 134.72671430114588 H 0.0 **** 0.06
13735 H 35.517010687670535 48.04532278328574 136.46791202450657 H 0.0 **** 0.06
13736 C 125.15515599720253 124.5294787490391 3.7189637375481084 C 0.0 **** -0.24
13737 H 125.46365846752721 123.48868870921241 3.813875199845711 H 0.0 **** 0.06
13738 H 125.19086886319414 124.82483980745913 2.669954982067509 H 0.0 **** 0.06
13739 H 125.82889033103385 125.1623809278492 4.298338284527915 H 0.0 **** 0.06
13740 H 124.13835230851203 124.64303782183318 4.094474694246969 H 0.0 **** 0.06
13741 C 32.76177236135101 114.89139187515273 63.06280554911733 C 0.0 **** -0.24
13742 H 32.10226593409564 114.15848437327902 62.598134957222854 H 0.0 **** 0.06
13743 H 33.31373168124966 114.41743919074325 63.87527568095817 H 0.0 **** 0.06
13744 H 32.16766457806831 115.71470800321781 63.45862920275748 H 0.0 **** 0.06
13745 H 33.46224500300826 115.27186364348542 62.32026117265529 H 0.0 **** 0.06
13746 C 39.688813330424324 105.72028481293924 22.13853294026574 C 0.0 **** -0.24
13747 H 38.931685239399016 106.38843299120705 21.727913932509587 H 0.0 **** 0.06
13748 H 40.66401259866805 105.97738620754521 21.722089351038235 H 0.0 **** 0.06
13749 H 39.44251309901813 104.69035677796504 21.881013389503714 H 0.0 **** 0.06
13750 H 39.71824094319851 105.82770610185699 23.22291321799795 H 0.0 **** 0.06
13751 C 51.99913249171955 21.521756871460845 106.28591553625441 C 0.0 **** -0.24
13752 H 51.570841100983344 20.932689512766288 105.47560449630274 H 0.0 **** 0.06
13753 H 51.99841460722379 20.932113313696846 107.20358973239755 H 0.0 **** 0.06
13754 H 51.40561002284697 22.424104172906908 106.43247718741421 H 0.0 **** 0.06
13755 H 53.022582430434724 21.797782166746714 106.03219688928121 H 0.0 **** 0.06
13756 C 125.54448795196582 1.8720035900316816 129.33601754897643 C 0.0 **** -0.24
13757 H 125.49808555203538 2.8109123797356688 128.78419329873878 H 0.0 **** 0.06
13758 H 126.51552544881503 1.4025942687826785 129.17321079885548 H 0.0 **** 0.06
13759 H 124.7558912593256 1.2049410248226877 128.98657696089418 H 0.0 **** 0.06
13760 H 125.41022012179906 2.0682403861339083 130.3990373503726 H 0.0 **** 0.06
13761 C 57.225791961430104 70.48838599191912 35.4231561717248 C 0.0 **** -0.24
13762 H 57.00747877503818 69.72428128860017 36.16946727888531 H 0.0 **** 0.06
13763 H 58.23151832700751 70.33445559056132 35.030124527555586 H 0.0 **** 0.06
13764 H 57.16259550366533 71.47454281154279 35.883980285962394 H 0.0 **** 0.06
13765 H 56.50325909730327 70.41994537504289 34.610488959555255 H 0.0 **** 0.06
13766 C 40.36982399627473 52.8811740395485 90.8422515764314 C 0.0 **** -0.24
13767 H 41.07606127972514 53.48322580822605 90.27053883098377 H 0.0 **** 0.06
13768 H 40.045163965938144 53.43871531098772 91.72044430273567 H 0.0 **** 0.06
13769 H 40.85251762299208 51.95541629863389 91.1552888911067 H 0.0 **** 0.06
13770 H 39.50613528201879 52.647520781561525 90.2197968777305 H 0.0 **** 0.06
13771 C 87.78593738916022 57.99623878483088 9.661396482363187 C 0.0 **** -0.24
13772 H 87.09802781167697 57.164580303705804 9.509651724145755 H 0.0 **** 0.06
13773 H 88.51591171470668 58.01495064225122 8.85259785799758 H 0.0 **** 0.06
13774 H 88.30000826727307 57.872149305624305 10.614365431164941 H 0.0 **** 0.06
13775 H 87.22675650721268 58.93244232090649 9.66878737712733 H 0.0 **** 0.06
13776 C 95.22370378006408 51.31628405926159 73.73989073720952 C 0.0 **** -0.24
13777 H 95.07638431977982 50.333797313964226 74.18778095359153 H 0.0 **** 0.06
13778 H 96.28990890498751 51.540921080521855 73.6984929771067 H 0.0 **** 0.06
13779 H 94.71674605901038 52.069857826136854 74.34151627515797 H 0.0 **** 0.06
13780 H 94.81243828189037 51.321230321415385 72.7303194748236 H 0.0 **** 0.06
13781 C 20.800321072031267 119.79293279711683 105.97168397388747 C 0.0 **** -0.24
13782 H 19.800153736221844 119.62388057080668 105.57395479733627 H 0.0 **** 0.06
13783 H 21.47493391779807 119.02199293201747 105.59891441706132 H 0.0 **** 0.06
13784 H 20.769514229825226 119.75326958961139 107.06139895855013 H 0.0 **** 0.06
13785 H 21.157034027167832 120.77302879023344 105.65376473352309 H 0.0 **** 0.06
13786 C 7.13278062123366 85.07766511649149 29.733588585175568 C 0.0 **** -0.24
13787 H 7.382810291717597 84.58660968478881 30.674444927254996 H 0.0 **** 0.06
13788 H 7.3053486620653985 86.15038021410581 29.827777450666332 H 0.0 **** 0.06
13789 H 6.084365802308341 84.89653364250464 29.497244256722865 H 0.0 **** 0.06
13790 H 7.759421104102625 84.67622906148787 28.937008578497284 H 0.0 **** 0.06
13791 C 97.33437341197201 21.918235493643124 74.8495522974924 C 0.0 **** -0.24
13792 H 96.753246328764 21.073809829781823 74.47947326379958 H 0.0 **** 0.06
13793 H 96.82756233701753 22.36046150754325 75.7074716400926 H 0.0 **** 0.06
13794 H 97.43393638347096 22.6642430040109 74.06121169998487 H 0.0 **** 0.06
13795 H 98.32444320033244 21.573079231217065 75.14949549050588 H 0.0 **** 0.06
13796 C 77.66707720365588 48.81496022503549 91.88558128431234 C 0.0 **** -0.24
13797 H 78.01457941586649 47.866258923267466 92.29536778457889 H 0.0 **** 0.06
13798 H 77.40496396097376 49.488615370380316 92.70190188564568 H 0.0 **** 0.06
13799 H 76.79065953503344 48.64158763856635 91.2616246464195 H 0.0 **** 0.06
13800 H 78.45957746300931 49.26303386307558 91.28507873791322 H 0.0 **** 0.06
13801 C 34.38974338738825 28.466884057667933 103.04037610666393 C 0.0 **** -0.24
13802 H 33.683314878419935 29.26358354068011 102.80754228890873 H 0.0 **** 0.06
13803 H 34.754919244437076 28.02375602716952 102.11398902234737 H 0.0 **** 0.06
13804 H 33.891245571239665 27.70277150754101 103.63705176983251 H 0.0 **** 0.06
13805 H 35.22884155047075 28.878060074457068 103.60250731715263 H 0.0 **** 0.06
13806 C 93.88716663668177 24.992991628721995 10.837836590662903 C 0.0 **** -0.24
13807 H 92.99174726988323 25.320907139242706 11.366124849700029 H 0.0 **** 0.06
13808 H 94.70244649521234 25.68940032391987 11.038507111664785 H 0.0 **** 0.06
13809 H 93.6869247599682 24.965831951756854 9.767629902647776 H 0.0 **** 0.06
13810 H 94.16759725299539 23.99755062113377 11.181539584015987 H 0.0 **** 0.06
13811 C 84.67444091514375 65.25257128119894 96.14237133753703 C 0.0 **** -0.24
13812 H 85.0762747925342 64.25544279127284 96.32256348626153 H 0.0 **** 0.06
13813 H 84.01003261502592 65.22592816000153 95.27912535982684 H 0.0 **** 0.06
13814 H 85.4943920671632 65.94489146110897 95.94943143497655 H 0.0 **** 0.06
13815 H 84.11827912818907 65.58351737480676 97.01949142607202 H 0.0 **** 0.06
13816 C 28.25404807087645 92.5565635516251 137.85266169087882 C 0.0 **** -0.24
13817 H 28.699095993497366 93.53599305647015 137.66944266603335 H 0.0 **** 0.06
13818 H 27.959335822000043 92.10971648368367 136.9032459354796 H 0.0 **** 0.06
13819 H 27.376484323292345 92.67114401220171 138.4898980178858 H 0.0 **** 0.06
13820 H 28.982105586010647 91.91457915977614 138.34683688071854 H 0.0 **** 0.06
13821 C 68.79804707079526 64.20635208140334 45.05587626115587 C 0.0 **** -0.24
13822 H 67.80670300908065 63.793814856330414 44.86688972652419 H 0.0 **** 0.06
13823 H 69.29961835060678 64.39528253439613 44.10700302887372 H 0.0 **** 0.06
13824 H 69.38098682726232 63.49571277123715 45.64156124196606 H 0.0 **** 0.06
13825 H 68.70198135284471 65.14117507534081 45.60917572343507 H 0.0 **** 0.06
13826 C 48.735640140135615 31.449647070316985 90.53275592305171 C 0.0 **** -0.24
13827 H 48.08119426745975 31.943222013748482 91.25074982417257 H 0.0 **** 0.06
13828 H 48.577854835917464 30.371024014397904 90.57993753333943 H 0.0 **** 0.06
13829 H 49.775034411408654 31.6759968960111 90.77172501508683 H 0.0 **** 0.06
13830 H 48.50765100426649 31.80630082749218 89.52824014241716 H 0.0 **** 0.06
13831 C 32.812700048121144 118.26824135998682 137.8565107472442 C 0.0 **** -0.24
13832 H 33.21259824011108 117.25480914511807 137.83906248422306 H 0.0 **** 0.06
13833 H 33.47327852451559 118.92952277427212 137.29516870100207 H 0.0 **** 0.06
13834 H 32.74496621383119 118.61365642007225 138.8881247552212 H 0.0 **** 0.06
13835 H 31.82106979949151 118.27576481263021 137.40475559623886 H 0.0 **** 0.06
13836 C 103.07551558436805 137.05533295324912 107.56987199556492 C 0.0 **** -0.24
13837 H 103.77880226575263 137.09319993383676 106.73824719311345 H 0.0 **** 0.06
13838 H 103.31763010693052 137.840819007889 108.286777272478 H 0.0 **** 0.06
13839 H 103.14228722339436 136.08306530047318 108.05833393591736 H 0.0 **** 0.06
13840 H 102.06231506552211 137.20460192565943 107.19522492485125 H 0.0 **** 0.06
13841 C 24.47003152657433 107.51860728457443 105.1570056866226 C 0.0 **** -0.24
13842 H 24.17971632656355 108.53261962770993 104.88318471968878 H 0.0 **** 0.06
13843 H 23.943805171865762 106.80565836285378 104.52148023571047 H 0.0 **** 0.06
13844 H 24.2115034892 107.33558283020356 106.20013569521072 H 0.0 **** 0.06
13845 H 25.545062305804578 107.39959203802873 105.02343520519054 H 0.0 **** 0.06
13846 C 86.46459758232206 0.5123313310301683 36.1674352927335 C 0.0 **** -0.24
13847 H 86.7625151215527 0.4148167813844168 37.211166066717624 H 0.0 **** 0.06
13848 H 85.90664370375237 -0.37377909689737976 35.86522069384955 H 0.0 **** 0.06
13849 H 87.35384757717318 0.6119232903506031 35.54440895524925 H 0.0 **** 0.06
13850 H 85.83712876755035 1.3953962039615249 36.05036618996951 H 0.0 **** 0.06
13851 C 24.053478182531478 74.17410837902406 82.75566498186683 C 0.0 **** -0.24
13852 H 24.708283709887212 73.4349116922931 82.29372245660156 H 0.0 **** 0.06
13853 H 24.25233945184675 74.21594744696188 83.82617352862208 H 0.0 **** 0.06
13854 H 23.014141025343918 73.8932129923636 82.58906096477769 H 0.0 **** 0.06
13855 H 24.2417542958558 75.15273703805241 82.31226446092636 H 0.0 **** 0.06
13856 C 1.5358853004996433 21.917516555014004 105.65427540187403 C 0.0 **** -0.24
13857 H 1.1690585302647207 21.796874292280364 106.67305919393385 H 0.0 **** 0.06
13858 H 1.0026948840613272 21.234570112634117 104.99301143971815 H 0.0 **** 0.06
13859 H 2.6027426878100073 21.69492488123936 105.62403995786855 H 0.0 **** 0.06
13860 H 1.369710277383973 22.944716049682228 105.32771145282618 H 0.0 **** 0.06
13861 C 65.77369172517294 21.132807440631673 98.01079181488345 C 0.0 **** -0.24
13862 H 66.22734051954669 20.448136472976657 97.29385363460051 H 0.0 **** 0.06
13863 H 66.44383536516813 21.976498415580245 98.1813761639257 H 0.0 **** 0.06
13864 H 65.6002566970761 20.610556742050917 98.95197002269131 H 0.0 **** 0.06
13865 H 64.82441159604454 21.495394363790894 97.61661945358952 H 0.0 **** 0.06
13866 C 103.42041183652086 122.40711718976027 72.63708353584471 C 0.0 **** -0.24
13867 H 103.34234601171917 123.22723756376772 73.35105707228749 H 0.0 **** 0.06
13868 H 104.08484131657161 121.64067574620506 73.0351461481633 H 0.0 **** 0.06
13869 H 103.82037701260288 122.78232560229768 71.69459934922773 H 0.0 **** 0.06
13870 H 102.43208715758291 121.97923461509677 72.46744641883353 H 0.0 **** 0.06
13871 C 133.90229780569848 88.95204460905813 62.770783423863776 C 0.0 **** -0.24
13872 H 133.11666715980192 89.33868501337759 62.12176680248743 H 0.0 **** 0.06
13873 H 134.57963628515571 89.7624513725702 63.04191881475802 H 0.0 **** 0.06
13874 H 134.45733584924952 88.17435679200497 62.24557170225839 H 0.0 **** 0.06
13875 H 133.45507634983466 88.53451835458915 63.67268734223356 H 0.0 **** 0.06
13876 C 21.205201612777785 13.046996250641023 78.6104034754046 C 0.0 **** -0.24
13877 H 20.8667874422962 12.989820134888653 77.57581725858708 H 0.0 **** 0.06
13878 H 20.47978051714403 12.553265368855854 79.25795579022237 H 0.0 **** 0.06
13879 H 21.300835320395052 14.09327734392808 78.90270984930984 H 0.0 **** 0.06
13880 H 22.17247512988454 12.55358192395849 78.70458486909264 H 0.0 **** 0.06
13881 C 117.06036729343005 51.444233959316705 38.01418130195219 C 0.0 **** -0.24
13882 H 116.77555160940081 51.28458658193989 39.053672810260935 H 0.0 **** 0.06
13883 H 118.13903726158388 51.591654681997056 37.95224447737891 H 0.0 **** 0.06
13884 H 116.55011450107368 52.327517769408246 37.62966510178995 H 0.0 **** 0.06
13885 H 116.77718854706153 50.57376239205263 37.42235873787956 H 0.0 **** 0.06
13886 C 123.76032794143705 15.321941217631803 2.1571192776023054 C 0.0 **** -0.24
13887 H 124.41294631214126 14.7683009693271 2.832119745737998 H 0.0 **** 0.06
13888 H 122.7383367846546 14.955768818353931 2.257467513307347 H 0.0 **** 0.06
13889 H 124.09717788699056 15.181859266314035 1.1298388532089803 H 0.0 **** 0.06
13890 H 123.79350804794355 16.38192375136643 2.4083024578578147 H 0.0 **** 0.06
13891 C 35.58495488333767 143.7403129565686 51.04821147913094 C 0.0 **** -0.24
13892 H 34.5910184686804 143.45253429040372 51.39066546860994 H 0.0 **** 0.06
13893 H 35.70413963743897 144.81883550066695 51.14358937622478 H 0.0 **** 0.06
13894 H 35.70676937658861 143.45113618350683 50.00451999964213 H 0.0 **** 0.06
13895 H 36.33793213707088 143.23582775563443 51.654766414829965 H 0.0 **** 0.06
13896 C 123.27511332318949 22.61468865379021 9.525253196663726 C 0.0 **** -0.24
13897 H 122.80700710888323 23.569057559668295 9.766214720211735 H 0.0 **** 0.06
13898 H 124.31191037486857 22.6245514593829 9.860207607658367 H 0.0 **** 0.06
13899 H 123.24237862948775 22.457099462897133 8.446091907663657 H 0.0 **** 0.06
13900 H 122.73753532480217 21.809644953203446 10.025888208978756 H 0.0 **** 0.06
13901 C 125.42460392263787 28.770725140579337 87.2437740250367 C 0.0 **** -0.24
13902 H 126.38541201793896 28.62570870274729 86.7503047601946 H 0.0 **** 0.06
13903 H 125.13426619611735 29.818902219175747 87.17156795539388 H 0.0 **** 0.06
13904 H 125.51011582887263 28.488689195453752 88.29335839641399 H 0.0 **** 0.06
13905 H 124.6704725225367 28.149541207793092 86.76062058574938 H 0.0 **** 0.06
13906 C 29.89496221593504 113.01424295123398 36.86510597695971 C 0.0 **** -0.24
13907 H 29.620175656408996 112.72506139898233 37.879985436378604 H 0.0 **** 0.06
13908 H 29.14046581523605 113.68993659243363 36.462987641370376 H 0.0 **** 0.06
13909 H 29.956833389337554 112.1233420958841 36.2388020619685 H 0.0 **** 0.06
13910 H 30.86347891052168 113.51519714511004 36.879640484786705 H 0.0 **** 0.06
13911 C 69.318160408561 44.678991628334074 3.1350465084906034 C 0.0 **** -0.24
13912 H 70.0947693818027 44.19561189289928 3.7281472165080913 H 0.0 **** 0.06
13913 H 68.77883495413317 45.39415208285422 3.7550807145414637 H 0.0 **** 0.06
13914 H 68.62463905840562 43.92459137902975 2.761917375070851 H 0.0 **** 0.06
13915 H 69.77520564830908 45.19920524543252 2.2934407069483314 H 0.0 **** 0.06
13916 C 78.02305649386291 133.5424954886547 70.79732031501344 C 0.0 **** -0.24
13917 H 77.17899052806261 132.88526838487292 71.00349990553666 H 0.0 **** 0.06
13918 H 78.88258397348235 133.22724890652762 71.38994925147738 H 0.0 **** 0.06
13919 H 77.75848388027667 134.56690924828234 71.05715415941354 H 0.0 **** 0.06
13920 H 78.27416961924266 133.49001106781424 69.7378437985135 H 0.0 **** 0.06
13921 C 62.74428581415947 68.9868555981879 103.17136123597973 C 0.0 **** -0.24
13922 H 61.77262191991372 68.89162739849502 103.65631667227602 H 0.0 **** 0.06
13923 H 63.342112698785286 68.09865936246518 103.37941993862191 H 0.0 **** 0.06
13924 H 63.257127784748036 69.86863919244854 103.55501171044243 H 0.0 **** 0.06
13925 H 62.603499284496195 69.08726379602064 102.09525053758681 H 0.0 **** 0.06
13926 C 117.92709176586239 74.76420856573557 137.86677190928054 C 0.0 **** -0.24
13927 H 117.12277101869314 75.33250675689105 137.39885820980678 H 0.0 **** 0.06
13928 H 117.68120484118721 73.7022480446445 137.84480842655591 H 0.0 **** 0.06
13929 H 118.0473239093504 75.08890600701453 138.899575681879 H 0.0 **** 0.06
13930 H 118.8559390022048 74.93364860892217 137.3211064179253 H 0.0 **** 0.06
13931 C 101.35331721666603 93.74944023295262 101.2855622740773 C 0.0 **** -0.24
13932 H 101.49404812223895 94.5494634590752 100.55853781808742 H 0.0 **** 0.06
13933 H 100.45822177508182 93.18079974497789 101.03221060160405 H 0.0 **** 0.06
13934 H 101.24218771174252 94.17880186052021 102.28112880197885 H 0.0 **** 0.06
13935 H 102.21973503070224 93.08831960671279 101.2704433935638 H 0.0 **** 0.06
13936 C 119.24214816531004 78.32042501508005 97.28413459332387 C 0.0 **** -0.24
13937 H 118.45957755841563 78.25952833775983 96.52764549929753 H 0.0 **** 0.06
13938 H 118.8856163044638 77.87344571203742 98.21169612507013 H 0.0 **** 0.06
13939 H 119.4977457366984 79.36562003858322 97.45777252838496 H 0.0 **** 0.06
13940 H 120.12420035957287 77.78374859712794 96.93708391309262 H 0.0 **** 0.06
13941 C 9.613073096352139 24.450946888285777 73.45855387399234 C 0.0 **** -0.24
13942 H 10.678131924670168 24.62343725421129 73.61366243245783 H 0.0 **** 0.06
13943 H 9.048968430866523 25.309743893472486 73.82560105093592 H 0.0 **** 0.06
13944 H 9.307621541603623 23.556951053356904 74.00082744442352 H 0.0 **** 0.06
13945 H 9.418287227353915 24.315765521470432 72.39514129447355 H 0.0 **** 0.06
13946 C 6.317357733987311 56.52884363475113 56.28809603342086 C 0.0 **** -0.24
13947 H 7.369993366329801 56.4270795769299 56.54984619375861 H 0.0 **** 0.06
13948 H 6.01496567457702 57.569995317812385 56.39763635759033 H 0.0 **** 0.06
13949 H 5.717241816480275 55.903622534584684 56.94932622407225 H 0.0 **** 0.06
13950 H 6.167675207032865 56.21378566292732 55.255490346391355 H 0.0 **** 0.06
13951 C 77.32563504550592 112.08644080460503 20.269288512729467 C 0.0 **** -0.24
13952 H 77.28030144743465 111.70221114878576 19.249924807798095 H 0.0 **** 0.06
13953 H 77.42752956259494 113.17223005427887 20.24464731052234 H 0.0 **** 0.06
13954 H 78.18251164649612 111.6517226085664 20.78314495240219 H 0.0 **** 0.06
13955 H 76.4105410193273 111.81946563203637 20.79894889959823 H 0.0 **** 0.06
13956 C 57.13840383646429 68.82161507164454 82.93708499011466 C 0.0 **** -0.24
13957 H 57.92448594840212 68.70274074769391 83.68261077400619 H 0.0 **** 0.06
13958 H 56.202035691618775 68.42589570512537 83.32991925419563 H 0.0 **** 0.06
13959 H 57.41209277664758 68.2791661794568 82.03213777668724 H 0.0 **** 0.06
13960 H 57.01791158865508 69.87936433266324 82.70384262639321 H 0.0 **** 0.06
13961 C 89.09655023951464 74.74062652909976 83.89433318657487 C 0.0 **** -0.24
13962 H 89.60580156957145 74.09850893210833 84.61259285181873 H 0.0 **** 0.06
13963 H 88.47374444203675 75.45860050533477 84.42855526916716 H 0.0 **** 0.06
13964 H 88.47089708910327 74.13180629768615 83.24176445382287 H 0.0 **** 0.06
13965 H 89.8359769732253 75.27398026318915 83.29682854073397 H 0.0 **** 0.06
13966 C 82.6798668613569 142.29163385689355 50.03062540714376 C 0.0 **** -0.24
13967 H 83.04172885946889 141.28469075500053 50.238236521948835 H 0.0 **** 0.06
13968 H 83.41283383776279 142.82313418891144 49.42423883410473 H 0.0 **** 0.06
13969 H 82.5292660878012 142.823644911495 50.96934341007841 H 0.0 **** 0.06
13970 H 81.73476367599014 142.23283534212604 49.49017223699576 H 0.0 **** 0.06
13971 C 8.654686136259539 36.200727357753294 132.50024333081794 C 0.0 **** -0.24
13972 H 9.53885372326112 36.83344575054148 132.42669753985368 H 0.0 **** 0.06
13973 H 8.55861739010967 35.603143369585425 131.5934213560267 H 0.0 **** 0.06
13974 H 7.769496945809355 36.82525851879608 132.62123022389994 H 0.0 **** 0.06
13975 H 8.752618264763761 35.53950820940119 133.36204869977726 H 0.0 **** 0.06
13976 C 119.88221099568436 2.014223089858344 73.1059176147231 C 0.0 **** -0.24
13977 H 119.12474497934322 2.23523214476376 73.8579981513113 H 0.0 **** 0.06
13978 H 120.60446646134922 2.8296325542075316 73.06664493262153 H 0.0 **** 0.06
13979 H 119.4053587811703 1.902852341878571 72.13204625595179 H 0.0 **** 0.06
13980 H 120.39455347151691 1.087886377186706 73.36848463713525 H 0.0 **** 0.06
13981 C 100.4905099784059 74.24018403622341 59.62323426656283 C 0.0 **** -0.24
13982 H 99.67240798364153 73.52119124013126 59.684156040902224 H 0.0 **** 0.06
13983 H 100.20629373331504 75.05712031558727 58.96061665464515 H 0.0 **** 0.06
13984 H 101.37921346916431 73.74584393930871 59.23163134901381 H 0.0 **** 0.06
13985 H 100.70171541407394 74.63376968829039 60.617075530092166 H 0.0 **** 0.06
13986 C 34.558605175301935 88.73595375938649 91.09727516963736 C 0.0 **** -0.24
13987 H 34.52724777598134 89.39346816163292 90.22870599904283 H 0.0 **** 0.06
13988 H 33.541647273529684 88.48081943855283 91.39678149683172 H 0.0 **** 0.06
13989 H 35.062790627870925 89.24382241201496 91.91942075013563 H 0.0 **** 0.06
13990 H 35.10151061931571 87.82511648647751 90.84458555206437 H 0.0 **** 0.06
13991 C 97.45262493260029 107.22063700363573 16.235279259750712 C 0.0 **** -0.24
13992 H 96.9273732109138 107.33372894739678 17.183903399142764 H 0.0 **** 0.06
13993 H 97.35113235573769 106.19261625321398 15.885534282964443 H 0.0 **** 0.06
13994 H 98.50766975635523 107.45562115082781 16.37329279357874 H 0.0 **** 0.06
13995 H 97.0220807980206 107.89892674081587 15.49886384588882 H 0.0 **** 0.06
13996 C 96.71672488753723 130.83051121752894 40.6470296570221 C 0.0 **** -0.24
13997 H 95.66522168644346 130.5499011282984 40.58574430218667 H 0.0 **** 0.06
13998 H 96.81825004543222 131.72471841097192 41.263028106057334 H 0.0 **** 0.06
13999 H 97.09699755824141 131.03285662856834 39.64635294865796 H 0.0 **** 0.06
14000 H 97.28481056376486 130.01477782142334 41.09357031904575 H 0.0 **** 0.06
14001 C 98.07777429832365 101.50160703230914 69.33472949186915 C 0.0 **** -0.24
14002 H 97.80538244113838 102.53328375196033 69.11007918837522 H 0.0 **** 0.06
14003 H 99.02847450137283 101.48540421196529 69.8694860480523 H 0.0 **** 0.06
14004 H 98.1740265373083 100.94136582649413 68.40500955096434 H 0.0 **** 0.06
14005 H 97.30453243698163 101.04840521758528 69.9539733668443 H 0.0 **** 0.06
14006 C 95.5489259804844 89.39619350137284 89.55298819597365 C 0.0 **** -0.24
14007 H 94.78861684701246 90.08217835183797 89.17734904082218 H 0.0 **** 0.06
14008 H 96.49534873951437 89.92667850429739 89.65958808522893 H 0.0 **** 0.06
14009 H 95.6710575849211 88.57100473501606 88.85196306663366 H 0.0 **** 0.06
14010 H 95.23948665521908 89.00696086815176 90.5224375826264 H 0.0 **** 0.06
14011 C 59.29328693775764 104.24388001593013 95.66673311406942 C 0.0 **** -0.24
14012 H 60.05891729825041 103.47187478101137 95.74462387844198 H 0.0 **** 0.06
14013 H 59.10096185437186 104.45877015182963 94.61551705947389 H 0.0 **** 0.06
14014 H 59.639067159952816 105.14865729149963 96.16545344030357 H 0.0 **** 0.06
14015 H 58.37666377764239 103.894378599963 96.14059341644685 H 0.0 **** 0.06
14016 C 44.671888200110445 19.380879652889348 22.51598331871321 C 0.0 **** -0.24
14017 H 45.02341969372485 19.35730265450769 21.484924352545306 H 0.0 **** 0.06
14018 H 45.37030232579863 18.835115798392792 23.1509395782266 H 0.0 **** 0.06
14019 H 43.687277422983385 18.916865852944795 22.575023254574035 H 0.0 **** 0.06
14020 H 44.606803537780806 20.41548232253183 22.85366249150701 H 0.0 **** 0.06
14021 C 128.09238681678505 16.871760815448425 133.13041237559824 C 0.0 **** -0.24
14022 H 127.96125593099504 15.949385451767341 133.697198335568 H 0.0 **** 0.06
14023 H 127.26736396624567 17.550366631262747 133.34693336063916 H 0.0 **** 0.06
14024 H 128.1068641876759 16.643526207112828 132.06459941240618 H 0.0 **** 0.06
14025 H 129.03447444913039 17.34104661477368 133.4135830326861 H 0.0 **** 0.06
14026 C 10.888742194929307 16.379676097194306 61.35943538283415 C 0.0 **** -0.24
14027 H 11.815751015573369 16.94674605937655 61.276103575083255 H 0.0 **** 0.06
14028 H 11.092198328959114 15.323931027171966 61.178214862518715 H 0.0 **** 0.06
14029 H 10.173253857387124 16.743554478886097 60.621947170226306 H 0.0 **** 0.06
14030 H 10.474676568705945 16.503760512646068 62.3601864119409 H 0.0 **** 0.06
14031 C 73.19348384367369 140.6667680558208 125.29122346866649 C 0.0 **** -0.24
14032 H 73.54851549960269 140.77499280803175 126.31695437906258 H 0.0 **** 0.06
14033 H 73.7207094930661 139.84265810245404 124.81114246097376 H 0.0 **** 0.06
14034 H 73.3817984707532 141.58949191828853 124.74303632889936 H 0.0 **** 0.06
14035 H 72.12356603761651 140.45980246983143 125.29770490498541 H 0.0 **** 0.06
14036 C 127.30943515254725 140.33359932473473 66.33926997852843 C 0.0 **** -0.24
14037 H 128.18024478076578 140.5187142053174 65.71148187149599 H 0.0 **** 0.06
14038 H 127.07646371619406 139.26770869758633 66.33275235808811 H 0.0 **** 0.06
14039 H 126.45777991259004 140.89459371636445 65.9547774156515 H 0.0 **** 0.06
14040 H 127.52380201245103 140.65235320568706 67.36022286078286 H 0.0 **** 0.06
14041 C 117.12224035336403 24.575368702875664 86.04014649316426 C 0.0 **** -0.24
14042 H 116.57501833808006 24.475800893598205 86.9772191617362 H 0.0 **** 0.06
14043 H 118.09672449346174 25.025087020192586 86.23375188214541 H 0.0 **** 0.06
14044 H 116.55856834966211 25.20935964877117 85.35590294105904 H 0.0 **** 0.06
14045 H 117.25895404389503 23.58997233137444 85.59313495413701 H 0.0 **** 0.06
14046 C 24.04570531365249 89.72905626647923 136.639719064183 C 0.0 **** -0.24
14047 H 24.317893171267258 90.09548827449015 135.650079112218 H 0.0 **** 0.06
14048 H 24.256220716060795 90.49831834988794 137.38257840542872 H 0.0 **** 0.06
14049 H 24.625759143945345 88.83434007857517 136.8676607890671 H 0.0 **** 0.06
14050 H 22.982576078014688 89.48758662593991 136.65728524034074 H 0.0 **** 0.06
14051 C 97.5901953431808 90.47133884939858 78.97659770196645 C 0.0 **** -0.24
14052 H 97.12779111065186 91.38299490033967 79.35545319265685 H 0.0 **** 0.06
14053 H 98.673688367023 90.59137793410143 78.96628275943797 H 0.0 **** 0.06
14054 H 97.23537424495626 90.27730171330161 77.964486311636 H 0.0 **** 0.06
14055 H 97.32370099092515 89.63377840705077 79.62260562646995 H 0.0 **** 0.06
14056 C 62.06447966793927 130.46446900101196 44.47271022965809 C 0.0 **** -0.24
14057 H 62.79579213049158 131.12538853255313 44.00871421681576 H 0.0 **** 0.06
14058 H 62.54672890505617 129.88385499402452 45.25875152625626 H 0.0 **** 0.06
14059 H 61.656424382809774 129.78923893054642 43.7203451919808 H 0.0 **** 0.06
14060 H 61.25850757001966 131.05982226508544 44.90225578502016 H 0.0 **** 0.06
14061 C 128.11285673693095 120.90717193157086 106.38793137165122 C 0.0 **** -0.24
14062 H 128.5551444283723 120.47412722422708 105.49074088149548 H 0.0 **** 0.06
14063 H 128.0842582098164 120.15564679109646 107.1769237572549 H 0.0 **** 0.06
14064 H 127.09856448781568 121.24182230189051 106.16833560951788 H 0.0 **** 0.06
14065 H 128.71274372778205 121.75600971218627 106.71516200775353 H 0.0 **** 0.06
14066 C 142.26641311839487 11.830888247427396 54.93512669370226 C 0.0 **** -0.24
14067 H 142.68254775122494 12.688328248698753 55.46599918262703 H 0.0 **** 0.06
14068 H 141.2286571764131 12.035303544368986 54.673728832586704 H 0.0 **** 0.06
14069 H 142.31503671981295 10.949787841443708 55.574541029155625 H 0.0 **** 0.06
14070 H 142.84257236649034 11.652580662461418 54.027245744474826 H 0.0 **** 0.06
14071 C 14.0466648619215 130.71788620971475 128.3806361439522 C 0.0 **** -0.24
14072 H 14.997566493782017 131.08677436289298 127.99570819082561 H 0.0 **** 0.06
14073 H 13.697003829079108 129.89431282011674 127.75688459406757 H 0.0 **** 0.06
14074 H 13.311967137508248 131.52278698137343 128.36711260880065 H 0.0 **** 0.06
14075 H 14.181994143673478 130.3668991785427 129.40421761843646 H 0.0 **** 0.06
14076 C 94.7166272864212 80.41757674297976 122.7237398794095 C 0.0 **** -0.24
14077 H 93.64331717764294 80.52153999273303 122.56679109665868 H 0.0 **** 0.06
14078 H 95.09919539400133 79.61464677611932 122.09256473248155 H 0.0 **** 0.06
14079 H 94.91032282960246 80.18023030686787 123.769601047852 H 0.0 **** 0.06
14080 H 95.21399450199857 81.35221983182635 122.4645506702642 H 0.0 **** 0.06
14081 C 53.34394606738613 77.2771844152742 19.09493129541272 C 0.0 **** -0.24
14082 H 52.89496349611812 77.71758715917503 19.984525539181107 H 0.0 **** 0.06
14083 H 52.83299407502801 76.3439164613556 18.855066855868074 H 0.0 **** 0.06
14084 H 54.398431602166795 77.07605259411632 19.280484759496744 H 0.0 **** 0.06
14085 H 53.24748946461088 77.96983703031427 18.258898777164916 H 0.0 **** 0.06
14086 C 145.02835058729335 103.85349541243372 76.2766421866253 C 0.0 **** -0.24
14087 H 145.60150620252705 103.34437878682414 77.05226248724006 H 0.0 **** 0.06
14088 H 144.29983399580755 103.16262235278899 75.85131181533134 H 0.0 **** 0.06
14089 H 145.70393849551732 104.19796504013911 75.49451975815454 H 0.0 **** 0.06
14090 H 144.50925611164743 104.70734312586455 76.71146155297761 H 0.0 **** 0.06
14091 C 58.674318269229275 18.014012717225967 38.18482689082285 C 0.0 **** -0.24
14092 H 58.04965241097446 18.810797830958876 37.78195232843751 H 0.0 **** 0.06
14093 H 58.77569622101515 18.14205054686164 39.261922831261614 H 0.0 **** 0.06
14094 H 59.65947841418176 18.0545565867572 37.71904944946246 H 0.0 **** 0.06
14095 H 58.21259047976113 17.048755332474514 37.97498036818763 H 0.0 **** 0.06
14096 C 116.43249084485441 19.727278977509968 96.82634609152848 C 0.0 **** -0.24
14097 H 116.67307886333808 19.025869560009127 96.02702628069787 H 0.0 **** 0.06
14098 H 117.13527550850549 19.596058993197403 97.64878387253539 H 0.0 **** 0.06
14099 H 115.41851947553184 19.539219376725214 97.18067445151713 H 0.0 **** 0.06
14100 H 116.50169653597945 20.74668305421622 96.44657405274903 H 0.0 **** 0.06
14101 C 40.14054465709026 103.39190819774834 124.70539413556659 C 0.0 **** -0.24
14102 H 39.656545036389986 102.62505373523842 125.31015813507659 H 0.0 **** 0.06
14103 H 39.882166945164755 104.37776195862492 125.09275732872484 H 0.0 **** 0.06
14104 H 39.80337702662612 103.30591020733334 123.67243710356243 H 0.0 **** 0.06
14105 H 41.22180613801544 103.2572512690397 124.74678321413782 H 0.0 **** 0.06
14106 C 129.0498556045616 130.787785405262 137.05814792406974 C 0.0 **** -0.24
14107 H 128.84232217313894 130.758605643165 138.12746840019824 H 0.0 **** 0.06
14108 H 129.57133513318485 131.71450823476414 136.81447420035565 H 0.0 **** 0.06
14109 H 128.11195511166235 130.74236545918177 136.50420513740693 H 0.0 **** 0.06
14110 H 129.674146521062 129.93679396928187 136.78517660948077 H 0.0 **** 0.06
14111 C 40.06691990705808 63.48702925671664 15.457964408617244 C 0.0 **** -0.24
14112 H 40.47008084516651 62.58059852909156 15.005501676117262 H 0.0 **** 0.06
14113 H 40.84558830390219 64.24848250565535 15.498883366145634 H 0.0 **** 0.06
14114 H 39.72156799700804 63.265659697949445 16.467786902541633 H 0.0 **** 0.06
14115 H 39.23252884623635 63.851183080771705 14.860600750717907 H 0.0 **** 0.06
14116 C 87.36867044201053 65.81386125538624 16.775110981637752 C 0.0 **** -0.24
14117 H 86.93503181264128 65.51231166535705 17.728197676216354 H 0.0 **** 0.06
14118 H 87.99296796903415 65.00767831047125 16.389365508679006 H 0.0 **** 0.06
14119 H 87.9755023032724 66.70726345869714 16.918973583809525 H 0.0 **** 0.06
14120 H 86.57014468305815 66.02723791321492 16.064046328835317 H 0.0 **** 0.06
14121 C 103.45303654818196 107.81175276631402 135.93561656384605 C 0.0 **** -0.24
14122 H 102.94952205057308 107.62352526629147 136.8836099369796 H 0.0 **** 0.06
14123 H 104.4866593599316 107.4686715666256 135.99870503686714 H 0.0 **** 0.06
14124 H 103.438090905627 108.88066007555202 135.72193057098735 H 0.0 **** 0.06
14125 H 102.94002584207391 107.27459833986293 135.13863539644075 H 0.0 **** 0.06
14126 C 12.737887727236114 115.40681125623927 19.80869563060528 C 0.0 **** -0.24
14127 H 11.824428273027422 114.85414688753947 19.587603240787914 H 0.0 **** 0.06
14128 H 13.103100042195365 115.8825673440444 18.897661011902237 H 0.0 **** 0.06
14129 H 13.4943486619336 114.720408140428 20.18874233941807 H 0.0 **** 0.06
14130 H 12.528750802143975 116.16842690395363 20.55847970293835 H 0.0 **** 0.06
14131 C 109.47709669371754 10.792782211466772 55.31800436578634 C 0.0 **** -0.24
14132 H 108.65665257473994 11.506122305575218 55.393920362951405 H 0.0 **** 0.06
14133 H 109.16330977973284 9.834506562043373 55.73206167212382 H 0.0 **** 0.06
14134 H 110.33477534590897 11.166577869930848 55.87601240411847 H 0.0 **** 0.06
14135 H 109.75112343300295 10.664977362407853 54.271606693965964 H 0.0 **** 0.06
14136 C 80.406688978523 48.52002956068108 16.396815859418354 C 0.0 **** -0.24
14137 H 79.33240131288977 48.34489219939698 16.456897675026212 H 0.0 **** 0.06
14138 H 80.9388486303713 47.652140770436944 16.788689731458895 H 0.0 **** 0.06
14139 H 80.66480469861006 49.40124663248349 16.984069331814084 H 0.0 **** 0.06
14140 H 80.69097204296634 48.68110412542151 15.356428880074134 H 0.0 **** 0.06
14141 C 5.404257597058631 84.88479904434197 8.500854173890815 C 0.0 **** -0.24
14142 H 4.434457973411895 85.03066415180145 8.976709154132521 H 0.0 **** 0.06
14143 H 5.8081800906371654 85.8504718208535 8.196182839889161 H 0.0 **** 0.06
14144 H 5.285768881622232 84.24781166186372 7.624456213502668 H 0.0 **** 0.06
14145 H 6.087014685454335 84.4101755283959 9.20543075729637 H 0.0 **** 0.06
14146 C 122.56935535807618 48.616940716638766 29.831217005179646 C 0.0 **** -0.24
14147 H 123.23751369790419 48.13430677514525 29.118550343072407 H 0.0 **** 0.06
14148 H 122.02183641018125 49.41658163351207 29.332314908233805 H 0.0 **** 0.06
14149 H 123.1534779804778 49.033061367609335 30.652707303533056 H 0.0 **** 0.06
14150 H 121.864702893693 47.882431793428 30.22273775313176 H 0.0 **** 0.06
14151 C 103.71843305630628 99.080995423202 84.89008955632248 C 0.0 **** -0.24
14152 H 103.37292503693249 100.11290359362839 84.96414833260992 H 0.0 **** 0.06
14153 H 104.27859460994716 98.95245391593859 83.96327292766159 H 0.0 **** 0.06
14154 H 102.86024039400978 98.4097112756539 84.892882647431 H 0.0 **** 0.06
14155 H 104.36270596313666 98.85233619177485 85.73919219120071 H 0.0 **** 0.06
14156 C 55.297364336934734 82.18444718282146 143.40170875719267 C 0.0 **** -0.24
14157 H 54.978394914622484 83.16699294931266 143.0549866954357 H 0.0 **** 0.06
14158 H 54.65773008980197 81.41882773380442 142.96117403525128 H 0.0 **** 0.06
14159 H 55.22191568618396 82.14008387025615 144.48873835479813 H 0.0 **** 0.06
14160 H 56.33141665713066 82.01188417791244 143.10193594328533 H 0.0 **** 0.06
14161 C 99.74289308006678 15.446922419394213 81.08494039758124 C 0.0 **** -0.24
14162 H 99.83325584583724 15.41203308974346 82.17068862222685 H 0.0 **** 0.06
14163 H 100.39938909842101 16.22235149072779 80.69138152176612 H 0.0 **** 0.06
14164 H 98.71113215936788 15.670160843422252 80.81370268318996 H 0.0 **** 0.06
14165 H 100.02836811629635 14.482074735203014 80.66673253961706 H 0.0 **** 0.06
14166 C 92.59274977880371 12.730271066029331 81.95541614245754 C 0.0 **** -0.24
14167 H 92.67654220454813 11.64383515898512 81.91908748848765 H 0.0 **** 0.06
14168 H 91.9643117355585 13.016468267744472 82.79882629624862 H 0.0 **** 0.06
14169 H 92.14552510841723 13.091658383975378 81.02967634352977 H 0.0 **** 0.06
14170 H 93.58414336700407 13.16700410032201 82.07460881596859 H 0.0 **** 0.06
14171 C 48.03817667403459 3.38961664878903 114.0213268262009 C 0.0 **** -0.24
14172 H 48.339739152311125 2.4928139351128493 113.4790714339944 H 0.0 **** 0.06
14173 H 48.30316257846334 3.2834552222185778 115.07337156213329 H 0.0 **** 0.06
14174 H 46.960997461455264 3.524738634334568 113.9283276274278 H 0.0 **** 0.06
14175 H 48.55081116179585 4.255927445762808 113.60325580341028 H 0.0 **** 0.06
14176 C 59.237838511136005 61.35938589370724 5.4946585340056515 C 0.0 **** -0.24
14177 H 59.88600702674205 60.737901915564365 4.876308985828416 H 0.0 **** 0.06
14178 H 59.821075236899134 62.16991851784071 5.9326308165698265 H 0.0 **** 0.06
14179 H 58.80468570231284 60.75242920071099 6.290516040374541 H 0.0 **** 0.06
14180 H 58.4403535359404 61.77552217514115 4.879699858875682 H 0.0 **** 0.06
14181 C 110.98393700304914 105.21962216144834 4.786939236904772 C 0.0 **** -0.24
14182 H 111.86956534150053 104.73647217571582 4.373208079453889 H 0.0 **** 0.06
14183 H 110.55174048435796 105.88569687783911 4.039487176302288 H 0.0 **** 0.06
14184 H 111.2642620730663 105.79543735867219 5.668165966633779 H 0.0 **** 0.06
14185 H 110.25322960288915 104.46085125543914 5.065591833388282 H 0.0 **** 0.06
14186 C 2.570787287481224 57.8685393469395 129.0859177466881 C 0.0 **** -0.24
14187 H 3.3699250654949715 57.67551832803932 128.37066774395 H 0.0 **** 0.06
14188 H 2.3988801579043724 58.94298071367648 129.15663989960868 H 0.0 **** 0.06
14189 H 2.856724728643691 57.480288701416356 130.06372863572392 H 0.0 **** 0.06
14190 H 1.6576191978816013 57.37536964462592 128.75263470746995 H 0.0 **** 0.06
14191 C 51.89342433169023 108.43067616495755 55.51542090532561 C 0.0 **** -0.24
14192 H 52.36171757024941 107.44643934546743 55.49305484654346 H 0.0 **** 0.06
14193 H 52.625310536709435 109.17309082732068 55.833973817148774 H 0.0 **** 0.06
14194 H 51.05824356710667 108.41957173720495 56.215417804346 H 0.0 **** 0.06
14195 H 51.52998569183637 108.68240049010221 54.519585038498036 H 0.0 **** 0.06
14196 C 102.39808888390681 139.1193847463817 103.70324468950339 C 0.0 **** -0.24
14197 H 102.87341045566549 140.0691015224027 103.45929527942313 H 0.0 **** 0.06
14198 H 103.01813368430905 138.5776461573482 104.41873593334712 H 0.0 **** 0.06
14199 H 102.28554702144882 138.525118871378 102.7963250100553 H 0.0 **** 0.06
14200 H 101.41693757753976 139.3051564693826 104.14001335836521 H 0.0 **** 0.06
14201 C 41.84188270784266 1.9376113544505138 33.14478156292344 C 0.0 **** -0.24
14202 H 41.69352640360836 1.5170862087877381 34.13969006681842 H 0.0 **** 0.06
14203 H 41.32382771976303 1.3214848544802429 32.408856888626985 H 0.0 **** 0.06
14204 H 42.906699610119944 1.961112322435259 32.915588382900694 H 0.0 **** 0.06
14205 H 41.44171674699051 2.951016637794055 33.115905525514506 H 0.0 **** 0.06
14206 C 27.511155800434842 102.18978060669443 78.22119156643406 C 0.0 **** -0.24
14207 H 26.570613272820765 101.94819013508499 77.72794252726997 H 0.0 **** 0.06
14208 H 28.171189232411706 101.32239214694319 78.19030366442662 H 0.0 **** 0.06
14209 H 27.31889441936174 102.46367952295996 79.25834913548064 H 0.0 **** 0.06
14210 H 27.985978434684895 103.02575992608405 77.70718090658517 H 0.0 **** 0.06
14211 C 24.952684008216373 12.640245584199107 72.62715145952997 C 0.0 **** -0.24
14212 H 24.01504758160941 12.50059935842927 73.16609654413332 H 0.0 **** 0.06
14213 H 25.233333280892133 11.706025005132858 72.14045873829417 H 0.0 **** 0.06
14214 H 25.7335240329788 12.935118748547353 73.3277844197022 H 0.0 **** 0.06
14215 H 24.82709952727597 13.41889342169938 71.87520534919875 H 0.0 **** 0.06
14216 C 124.7958650850483 106.29799200001855 62.68428483070217 C 0.0 **** -0.24
14217 H 123.97644146806499 106.80037657524576 63.19668359775061 H 0.0 **** 0.06
14218 H 124.44237443080574 105.90296543804828 61.73169925289896 H 0.0 **** 0.06
14219 H 125.1632907472966 105.47856263171462 63.30296636339054 H 0.0 **** 0.06
14220 H 125.60347912132902 107.00825017417452 62.50623201745839 H 0.0 **** 0.06
14221 C 42.263981797689894 74.96428219740736 30.093344548474334 C 0.0 **** -0.24
14222 H 43.013278656016865 74.68544176639722 30.833658057635624 H 0.0 **** 0.06
14223 H 41.45383196026614 74.23462681208298 30.105435464081275 H 0.0 **** 0.06
14224 H 42.7208744855817 74.98447598685877 29.104065433548456 H 0.0 **** 0.06
14225 H 41.86754377672548 75.95108781183683 30.331832408057224 H 0.0 **** 0.06
14226 C 126.03651022204429 116.98551305407751 114.2409896666892 C 0.0 **** -0.24
14227 H 126.9709403553216 117.16013147380143 114.77390111336784 H 0.0 **** 0.06
14228 H 125.62665202619206 116.01871161133074 114.5339574878138 H 0.0 **** 0.06
14229 H 126.2243003045518 116.99028410836367 113.16716750702442 H 0.0 **** 0.06
14230 H 125.32507747013241 117.77306106070317 114.48858904971483 H 0.0 **** 0.06
14231 C 105.37112725840993 63.17843508365024 129.30729290553276 C 0.0 **** -0.24
14232 H 106.3993776778639 63.08508103412896 129.6569784801868 H 0.0 **** 0.06
14233 H 105.31406400233132 63.967541158798326 128.555589898986 H 0.0 **** 0.06
14234 H 104.7223983151828 63.42806009368627 130.14684993475606 H 0.0 **** 0.06
14235 H 105.0495885834138 62.233837651213946 128.8671945966166 H 0.0 **** 0.06
14236 C 107.7238330704896 27.780144252360373 93.95762887319762 C 0.0 **** -0.24
14237 H 108.44992868463726 26.983170683930666 94.12248411390397 H 0.0 **** 0.06
14238 H 107.70169300457474 28.037878021266778 92.8987757117088 H 0.0 **** 0.06
14239 H 108.00920224790752 28.656588395380226 94.53968643507378 H 0.0 **** 0.06
14240 H 106.7360700331352 27.44163422732501 94.27049472861708 H 0.0 **** 0.06
14241 C 37.43201038816878 108.3170750171392 116.88662910929547 C 0.0 **** -0.24
14242 H 37.006489923251365 107.49805153895487 116.3066267128681 H 0.0 **** 0.06
14243 H 38.440169968636326 108.52939236595192 116.5306045242241 H 0.0 **** 0.06
14244 H 37.469785941150974 108.03506573458127 117.93884756063427 H 0.0 **** 0.06
14245 H 36.810686807387526 109.20477049021964 116.77080327675084 H 0.0 **** 0.06
14246 C 0.07940112566870994 83.74482129380789 76.91304402532991 C 0.0 **** -0.24
14247 H -0.6237116538708847 82.91572742113863 76.9965227263067 H 0.0 **** 0.06
14248 H -0.11359081335291421 84.46643744397483 77.70766733009808 H 0.0 **** 0.06
14249 H -0.04346539783796288 84.22973185157053 75.94510889194187 H 0.0 **** 0.06
14250 H 1.0984032812234545 83.36730086666216 77.00387285157186 H 0.0 **** 0.06
14251 C 4.906734890693201 74.18825819038915 11.437429991986363 C 0.0 **** -0.24
14252 H 4.204170345124766 74.93340083624372 11.065457743620257 H 0.0 **** 0.06
14253 H 5.0261072361564345 73.39962427746201 10.694484035980942 H 0.0 **** 0.06
14254 H 4.525958839670977 73.76036373650221 12.364810082566123 H 0.0 **** 0.06
14255 H 5.871770888353211 74.66048220236092 11.624571529323482 H 0.0 **** 0.06
14256 C 77.4772041400652 7.851251073464027 77.53970665757976 C 0.0 **** -0.24
14257 H 78.1226943159783 8.098069494853746 76.69613979997901 H 0.0 **** 0.06
14258 H 77.39547100199263 8.716580175973888 78.19846472637978 H 0.0 **** 0.06
14259 H 77.90353323782233 7.013465307047511 78.08976331238031 H 0.0 **** 0.06
14260 H 76.4879845502339 7.5794475092878315 77.17186932117298 H 0.0 **** 0.06
14261 C 103.69577025595493 19.418060325014096 33.11594509005292 C 0.0 **** -0.24
14262 H 104.45395945570334 19.979291517099853 33.66287709730756 H 0.0 **** 0.06
14263 H 103.58546461234408 18.42819704219761 33.560827458781745 H 0.0 **** 0.06
14264 H 104.00044881378176 19.316868027772273 32.07432568303585 H 0.0 **** 0.06
14265 H 102.7451538481412 19.94772991059375 33.166841213293736 H 0.0 **** 0.06
14266 C 143.37157944775217 94.99130562451893 2.037463614736538 C 0.0 **** -0.24
14267 H 143.13223975749023 95.0912038594497 0.9788991436264212 H 0.0 **** 0.06
14268 H 143.05866316452463 95.89170501940913 2.5664799121226736 H 0.0 **** 0.06
14269 H 144.44589696452718 94.85401471877111 2.1556749838438236 H 0.0 **** 0.06
14270 H 142.8468975124632 94.12827808734562 2.44773577762075 H 0.0 **** 0.06
14271 C 1.4833064394826003 30.955221975643497 53.08560971109637 C 0.0 **** -0.24
14272 H 1.0875809865507975 30.137403503807718 52.484672824493714 H 0.0 **** 0.06
14273 H 2.12037081008587 31.58710160454413 52.46609856971668 H 0.0 **** 0.06
14274 H 2.0663830574250994 30.54982300652128 53.91237341342929 H 0.0 **** 0.06
14275 H 0.656785939958791 31.547551151575618 53.480059926227 H 0.0 **** 0.06
14276 C 24.764363772172665 103.69850041011657 37.56781117376745 C 0.0 **** -0.24
14277 H 23.85591636137496 103.54100918735273 38.14878422949296 H 0.0 **** 0.06
14278 H 25.03781215145107 102.77184894557044 37.06264093747071 H 0.0 **** 0.06
14279 H 25.572851612607828 104.00230842706682 38.232913426301074 H 0.0 **** 0.06
14280 H 24.59087496325676 104.47883508047633 36.82690610180525 H 0.0 **** 0.06
14281 C 63.59266390529757 58.73199908634183 3.0954646544302875 C 0.0 **** -0.24
14282 H 63.253461343862895 58.85125140952704 2.065444511570547 H 0.0 **** 0.06
14283 H 63.44018645273775 59.66547793922584 3.637872053193149 H 0.0 **** 0.06
14284 H 64.65186839056244 58.47669788586026 3.1015481873058377 H 0.0 **** 0.06
14285 H 63.02339592401994 57.93559092321976 3.574776555281659 H 0.0 **** 0.06
14286 C 27.27388818566201 1.3549043600152224 72.85314484020613 C 0.0 **** -0.24
14287 H 28.340276821178158 1.1291811918181054 72.82725552703124 H 0.0 **** 0.06
14288 H 27.10790826627386 2.256878609924186 73.44337706187991 H 0.0 **** 0.06
14289 H 26.736951222710175 0.5201136951070673 73.30523908254065 H 0.0 **** 0.06
14290 H 26.91107001641563 1.5131876936534887 71.8379353911176 H 0.0 **** 0.06
14291 C 53.49900974554768 0.9675152379203666 82.38279933728575 C 0.0 **** -0.24
14292 H 53.789287314782 0.38034990355359355 81.51227096648518 H 0.0 **** 0.06
14293 H 52.9753673266014 1.8661762361672913 82.05667217512757 H 0.0 **** 0.06
14294 H 54.39014662812812 1.2496348543978968 82.94412678683273 H 0.0 **** 0.06
14295 H 52.84228963469556 0.37333445374414964 83.01888488545967 H 0.0 **** 0.06
14296 C 137.50120213503814 88.84000000957647 64.59342559687724 C 0.0 **** -0.24
14297 H 137.19257449554007 88.90283739830338 65.63756227219153 H 0.0 **** 0.06
14298 H 136.8826654218671 89.50550981156786 63.9917422012017 H 0.0 **** 0.06
14299 H 137.3823983780701 87.81507410846345 64.24061473686834 H 0.0 **** 0.06
14300 H 138.54601020602468 89.13498652901848 64.50523902764905 H 0.0 **** 0.06
14301 C 97.90724322902578 81.35882507076286 55.87825054509031 C 0.0 **** -0.24
14302 H 97.25277282049981 81.88532959188453 55.18247296755035 H 0.0 **** 0.06
14303 H 97.6737194620466 81.66488364715025 56.89871159655482 H 0.0 **** 0.06
14304 H 98.94538420049523 81.60344257198561 55.653986219622226 H 0.0 **** 0.06
14305 H 97.75703957666752 80.2843463989369 55.77652880249721 H 0.0 **** 0.06
14306 C 0.1632887742925675 8.450344947010784 13.731049088297226 C 0.0 **** -0.24
14307 H -0.20241065435081396 8.282879197751864 14.743705994717033 H 0.0 **** 0.06
14308 H 0.08199527244778437 7.526159199791589 13.1579016232443 H 0.0 **** 0.06
14309 H 1.2060029883936352 8.765937114894783 13.767512098817036 H 0.0 **** 0.06
14310 H -0.4338116035686994 9.227593389282262 13.253778820504152 H 0.0 **** 0.06
14311 C 65.64234218252923 60.273510941334706 112.42726304966088 C 0.0 **** -0.24
14312 H 64.82381485798155 60.239725063677895 111.70917923018779 H 0.0 **** 0.06
14313 H 65.2927232340202 59.90881843531278 113.39297255638242 H 0.0 **** 0.06
14314 H 65.99226339625562 61.30060723390645 112.53123540111388 H 0.0 **** 0.06
14315 H 66.46056724185942 59.6448930324415 112.07566501095921 H 0.0 **** 0.06
14316 C 16.132909162760654 118.00573584810698 139.17073894407753 C 0.0 **** -0.24
14317 H 15.274184430960013 117.41718053060313 138.84869027655031 H 0.0 **** 0.06
14318 H 16.110142585210667 118.11824177344639 140.25538730332084 H 0.0 **** 0.06
14319 H 16.096691401548668 118.98920038872987 138.70207417039512 H 0.0 **** 0.06
14320 H 17.051717316299147 117.49766428717956 138.87740504738002 H 0.0 **** 0.06
14321 C 11.84115376343334 107.43764062970776 61.57739989807389 C 0.0 **** -0.24
14322 H 11.794825696768385 106.45487140101626 62.04578352031764 H 0.0 **** 0.06
14323 H 11.838241631080734 107.32325053739383 60.49346525126033 H 0.0 **** 0.06
14324 H 12.756807271474202 107.94364394687814 61.8868272474391 H 0.0 **** 0.06
14325 H 10.977934776620032 108.02747707747592 61.88455101927208 H 0.0 **** 0.06
14326 C 15.785341744470713 62.42849449061873 10.706734747276016 C 0.0 **** -0.24
14327 H 15.645988178738634 62.203699794123395 9.649899012626008 H 0.0 **** 0.06
14328 H 16.850699513034783 62.446753495122834 10.93689195107629 H 0.0 **** 0.06
14329 H 15.295967753186801 61.66322163221918 11.309471388927534 H 0.0 **** 0.06
14330 H 15.34853476158034 63.40230470246371 10.931657616457358 H 0.0 **** 0.06
14331 C 83.94258810618393 76.08195258324935 80.34188877928631 C 0.0 **** -0.24
14332 H 83.31348838554581 75.26119289166657 79.9975750261697 H 0.0 **** 0.06
14333 H 83.80521777112246 76.22034144369636 81.41432330517846 H 0.0 **** 0.06
14334 H 83.66408109300842 76.99664066094125 79.81807537516104 H 0.0 **** 0.06
14335 H 84.98743924305147 75.84947311242264 80.13535474433297 H 0.0 **** 0.06
14336 C 118.26320062320525 78.05266386092006 93.4699978151275 C 0.0 **** -0.24
14337 H 118.34498148986546 79.04251152662968 93.02183785329082 H 0.0 **** 0.06
14338 H 118.02095028329717 77.32217652055294 92.69737567942407 H 0.0 **** 0.06
14339 H 117.47650222880713 78.05969094448895 94.22484692631778 H 0.0 **** 0.06
14340 H 119.21228839282054 77.78661824183615 93.93741317060588 H 0.0 **** 0.06
14341 C 8.509215841695038 4.063768722765246 39.68825292371977 C 0.0 **** -0.24
14342 H 8.36242675602358 2.998725720163293 39.5081521963786 H 0.0 **** 0.06
14343 H 7.892165210309486 4.377149466051378 40.530834646424864 H 0.0 **** 0.06
14344 H 8.222421802363442 4.62425296698558 38.798693217873904 H 0.0 **** 0.06
14345 H 9.55761158811896 4.253217438544311 39.91536605407862 H 0.0 **** 0.06
14346 C 52.07520083434645 12.976689887001584 103.06217433658111 C 0.0 **** -0.24
14347 H 51.80943427262304 11.941816561721538 102.84662334555615 H 0.0 **** 0.06
14348 H 51.613918012492036 13.631107094163013 102.32332785537461 H 0.0 **** 0.06
14349 H 53.15856294178579 13.088390881646234 103.02155026470719 H 0.0 **** 0.06
14350 H 51.71972110358905 13.24339365405396 104.05688238789561 H 0.0 **** 0.06
14351 C 135.26272595190449 25.65439426475652 128.3583892705366 C 0.0 **** -0.24
14352 H 136.2215762412589 25.884536842022584 127.89445135322248 H 0.0 **** 0.06
14353 H 135.36759339304564 25.691417398710172 129.44333399891306 H 0.0 **** 0.06
14354 H 134.9441011550737 24.656514993608823 128.057362549588 H 0.0 **** 0.06
14355 H 134.5197533423484 26.384495947008162 128.03947223897046 H 0.0 **** 0.06
14356 C 8.924042080626421 10.372153229486706 87.89680218319018 C 0.0 **** -0.24
14357 H 8.595662509506393 9.339196709127819 88.01084853005804 H 0.0 **** 0.06
14358 H 8.054128018827566 11.030034205295244 87.8803365038599 H 0.0 **** 0.06
14359 H 9.476885938428914 10.476267255025697 86.96366939727704 H 0.0 **** 0.06
14360 H 9.568107680841152 10.64191393128418 88.7336358304457 H 0.0 **** 0.06
14361 C 109.1782830389015 129.57080664118212 100.15052551292908 C 0.0 **** -0.24
14362 H 109.27011053977702 130.53518777182455 100.6500309038284 H 0.0 **** 0.06
14363 H 108.1355038884227 129.2531166872239 100.16308135182945 H 0.0 **** 0.06
14364 H 109.7898811109963 128.83344235626913 100.67053475210776 H 0.0 **** 0.06
14365 H 109.51755807702358 129.66246702455177 99.11859347459384 H 0.0 **** 0.06
14366 C 32.992499180364916 132.85610931854148 55.43046666299119 C 0.0 **** -0.24
14367 H 32.57350775666552 131.8563231282603 55.31341245031285 H 0.0 **** 0.06
14368 H 32.222980636358535 133.53055415113207 55.80884130056279 H 0.0 **** 0.06
14369 H 33.350286781388235 133.21591411023107 54.466140260760824 H 0.0 **** 0.06
14370 H 33.82250589504008 132.82064343162696 56.13601886887511 H 0.0 **** 0.06
14371 C 129.63135651743738 104.22452263693697 45.701096737680686 C 0.0 **** -0.24
14372 H 129.77682761388505 104.82008951804704 44.799789824578184 H 0.0 **** 0.06
14373 H 128.9180016240257 103.42594284694184 45.498785129777076 H 0.0 **** 0.06
14374 H 129.24820293046935 104.86125572623655 46.49872585782481 H 0.0 **** 0.06
14375 H 130.58404509763218 103.79218310491461 46.00769242175181 H 0.0 **** 0.06
14376 C 139.8463589551789 14.257291283583179 90.42413316650033 C 0.0 **** -0.24
14377 H 140.31756076196035 13.457860699791965 90.99633637724816 H 0.0 **** 0.06
14378 H 140.44465684818908 14.470370277902404 89.53813944160817 H 0.0 **** 0.06
14379 H 139.77718238861303 15.153706813960355 91.04094166707915 H 0.0 **** 0.06
14380 H 138.8466268117125 13.946676592231832 90.12170462788612 H 0.0 **** 0.06
14381 C 79.60106347416934 68.62985711599158 95.14742542859577 C 0.0 **** -0.24
14382 H 80.2112617705302 67.86505655224937 95.62883489380246 H 0.0 **** 0.06
14383 H 78.608599263685 68.64019322402179 95.59936448013286 H 0.0 **** 0.06
14384 H 79.51344093265817 68.40928006725844 94.08415457943059 H 0.0 **** 0.06
14385 H 80.07024244421291 69.60448743529106 95.27942809161172 H 0.0 **** 0.06
14386 C 60.671448705886704 133.3418383893976 142.7759199022088 C 0.0 **** -0.24
14387 H 60.09797589368354 134.17210399650884 143.18879503693606 H 0.0 **** 0.06
14388 H 61.60181581500116 133.23110220116064 143.33438521569445 H 0.0 **** 0.06
14389 H 60.89727803388739 133.54021793439793 141.72857156867258 H 0.0 **** 0.06
14390 H 60.08921586126549 132.42357162835017 142.85407984103955 H 0.0 **** 0.06
14391 C 99.2976254257291 122.38762221871828 77.03146775747453 C 0.0 **** -0.24
14392 H 100.00074021636769 122.12426546235885 77.82192694438399 H 0.0 **** 0.06
14393 H 99.57778151019643 123.34986701663888 76.60201293378577 H 0.0 **** 0.06
14394 H 98.29198787685014 122.4531065369505 77.44616981636321 H 0.0 **** 0.06
14395 H 99.3211886779281 121.62260595919663 76.25536931422457 H 0.0 **** 0.06
14396 C 138.23392572481754 50.73958314855366 79.78282367175055 C 0.0 **** -0.24
14397 H 138.36021958714764 51.27183076267846 80.72551515118289 H 0.0 **** 0.06
14398 H 139.20933954803937 50.421448357648956 79.41236570868668 H 0.0 **** 0.06
14399 H 137.7652955050685 51.40021610185414 79.05363871602309 H 0.0 **** 0.06
14400 H 137.6026927653954 49.866240942206844 79.94056760658026 H 0.0 **** 0.06
14401 C 105.02299219961591 64.69712025714682 125.0282641200452 C 0.0 **** -0.24
14402 H 104.47224061388899 64.49203762590486 125.94649106375341 H 0.0 **** 0.06
14403 H 105.79387264794754 65.44241989627551 125.2258234968278 H 0.0 **** 0.06
14404 H 104.33670816167714 65.07633893856399 124.2701583430263 H 0.0 **** 0.06
14405 H 105.48833084338004 63.77819348353256 124.67031095100923 H 0.0 **** 0.06
14406 C 140.41052113769376 41.590267938454446 60.63465745740277 C 0.0 **** -0.24
14407 H 139.99710775812315 42.59793906267453 60.678225612358546 H 0.0 **** 0.06
14408 H 141.46539495631816 41.642550995215075 60.36137427870966 H 0.0 **** 0.06
14409 H 139.87012913167447 41.0067354606107 59.88950766738898 H 0.0 **** 0.06
14410 H 140.3114440264734 41.1143135075668 61.61042588195866 H 0.0 **** 0.06
14411 C 69.50115182677672 121.72414959605136 134.2862904038215 C 0.0 **** -0.24
14412 H 69.5859207576137 121.34077646042631 133.26850837983528 H 0.0 **** 0.06
14413 H 68.95757927880369 122.66862488759772 134.2749685370937 H 0.0 **** 0.06
14414 H 70.49870334700928 121.88289968091694 134.69728714428436 H 0.0 **** 0.06
14415 H 68.96507099132414 121.00303966008723 134.9023225791597 H 0.0 **** 0.06
14416 C 69.6495888785152 77.69818542425413 60.45652113137788 C 0.0 **** -0.24
14417 H 69.94738444617832 77.17178362903 61.36365996948585 H 0.0 **** 0.06
14418 H 69.46200236222757 78.74615366935191 60.69064024319421 H 0.0 **** 0.06
14419 H 68.74141117914877 77.2471858892958 60.05587464308134 H 0.0 **** 0.06
14420 H 70.44707909165996 77.62804210264204 59.71717131794804 H 0.0 **** 0.06
14421 C 30.67399203397514 65.12190348036299 88.11662850380378 C 0.0 **** -0.24
14422 H 30.885570523418153 65.63677188579322 89.05494351480716 H 0.0 **** 0.06
14423 H 31.540019989595805 64.52668473398725 87.82654380036327 H 0.0 **** 0.06
14424 H 30.46103792369189 65.85634057764688 87.34053923830636 H 0.0 **** 0.06
14425 H 29.810430841734956 64.46962193634496 88.24757796784351 H 0.0 **** 0.06
14426 C 107.77765292612419 64.08493851980676 114.93930740463357 C 0.0 **** -0.24
14427 H 108.15620629455039 63.17034387848777 115.39418631657502 H 0.0 **** 0.06
14428 H 106.68742505875274 64.06067622717356 114.92893982092492 H 0.0 **** 0.06
14429 H 108.14877159045928 64.16425304725684 113.91776101988724 H 0.0 **** 0.06
14430 H 108.11630546872227 64.94527293525107 115.51766551195648 H 0.0 **** 0.06
14431 C 24.118848328957284 5.880400299070203 6.773904491767553 C 0.0 **** -0.24
14432 H 23.77732356526215 5.440181863481143 5.837427353014448 H 0.0 **** 0.06
14433 H 23.607990863491864 6.830003502854652 6.9366814879734875 H 0.0 **** 0.06
14434 H 25.194122646349996 6.049282787881623 6.724359522919542 H 0.0 **** 0.06
14435 H 23.894872222522537 5.201226365122494 7.597095484538613 H 0.0 **** 0.06
14436 C 18.756230314710265 113.84905808847978 99.49333309781991 C 0.0 **** -0.24
14437 H 18.23102516067408 114.369370064876 100.29450280797664 H 0.0 **** 0.06
14438 H 18.10849930291053 113.77893290521226 98.61896650981615 H 0.0 **** 0.06
14439 H 19.02679954091346 112.84757522197779 99.8270608824369 H 0.0 **** 0.06
14440 H 19.660219140069756 114.40081993806078 99.23426941892026 H 0.0 **** 0.06
14441 C 98.36392927488035 61.076358516728774 116.45860620635871 C 0.0 **** -0.24
14442 H 97.69661874595502 60.89176590981161 115.61716928481705 H 0.0 **** 0.06
14443 H 98.82436728611894 62.058632904826 116.34795447917055 H 0.0 **** 0.06
14444 H 99.13970482091406 60.31088827262458 116.48091116789494 H 0.0 **** 0.06
14445 H 97.79431336308562 61.043794839952426 117.38778339664107 H 0.0 **** 0.06
14446 C 116.86823960014955 81.09072319184837 58.95416432393546 C 0.0 **** -0.24
14447 H 116.92456308828945 80.00629907193021 59.05420899051899 H 0.0 **** 0.06
14448 H 116.16586736251632 81.48632032268682 59.68783526247654 H 0.0 **** 0.06
14449 H 116.52744416293696 81.3457081704654 57.950326159820975 H 0.0 **** 0.06
14450 H 117.85400677085407 81.52323394167935 59.12454748359414 H 0.0 **** 0.06
14451 C 48.408043253826335 26.905933973990074 81.80158293043232 C 0.0 **** -0.24
14452 H 48.698042019867685 25.868122567497693 81.64157968757635 H 0.0 **** 0.06
14453 H 48.31851049652563 27.41047980816876 80.83926161886049 H 0.0 **** 0.06
14454 H 49.166254185871466 27.405565356332914 82.40476662663653 H 0.0 **** 0.06
14455 H 47.450637987269644 26.93992877274738 82.32022090365697 H 0.0 **** 0.06
14456 C 71.31997512345717 96.3063460438847 35.121570231328775 C 0.0 **** -0.24
14457 H 71.70157850406501 95.93649203603806 34.169771523972 H 0.0 **** 0.06
14458 H 70.3767251518562 95.81092029100154 35.35050840651198 H 0.0 **** 0.06
14459 H 71.15978174112786 97.38182256248021 35.05536469416916 H 0.0 **** 0.06
14460 H 72.04321053489352 96.09461435397975 35.90933361182857 H 0.0 **** 0.06
14461 C 34.92604070475801 96.4480137662913 60.46408447712477 C 0.0 **** -0.24
14462 H 34.24060957385885 96.38462745422095 61.30896329510452 H 0.0 **** 0.06
14463 H 34.74828640034085 95.61211516064051 59.78885137337096 H 0.0 **** 0.06
14464 H 35.9532831215809 96.41138844609586 60.82689641701771 H 0.0 **** 0.06
14465 H 34.762297680188475 97.3864335970901 59.93324044246049 H 0.0 **** 0.06
14466 C 59.58751432746567 121.55833031607568 141.78523677300072 C 0.0 **** -0.24
14467 H 58.509741861257766 121.71134169725423 141.73274953815002 H 0.0 **** 0.06
14468 H 59.928631518979 121.06049821174435 140.87769440918666 H 0.0 **** 0.06
14469 H 59.825754180443596 120.939270891055 142.6506252011482 H 0.0 **** 0.06
14470 H 60.08680435753014 122.52273917101894 141.88085550003973 H 0.0 **** 0.06
14471 C 40.9116057832962 131.2715843027555 144.66226033712297 C 0.0 **** -0.24
14472 H 41.15138327610949 132.11171178258914 145.3145742948002 H 0.0 **** 0.06
14473 H 39.858732427903554 131.3191918365225 144.38266749917165 H 0.0 **** 0.06
14474 H 41.10744485512389 130.33641448133636 145.1872111686188 H 0.0 **** 0.06
14475 H 41.52804185048029 131.32106531414672 143.76496212668724 H 0.0 **** 0.06
14476 C 21.377018318265755 69.99214317693637 140.75053198794532 C 0.0 **** -0.24
14477 H 21.346512580698942 68.9935934393674 141.18559368865905 H 0.0 **** 0.06
14478 H 22.397970039302663 70.22359041147163 140.44400346631772 H 0.0 **** 0.06
14479 H 21.04564564797613 70.72142723412622 141.489280783965 H 0.0 **** 0.06
14480 H 20.719694702534923 70.03075930384057 139.88173260523047 H 0.0 **** 0.06
14481 C 121.88458932705937 81.96249870511566 11.100762242893026 C 0.0 **** -0.24
14482 H 121.17027377996273 81.63752617684125 10.342888807399461 H 0.0 **** 0.06
14483 H 122.32782182661172 81.08951902757647 11.57916510708695 H 0.0 **** 0.06
14484 H 121.37038424011887 82.56640242558296 11.8483512454494 H 0.0 **** 0.06
14485 H 122.66757613221513 82.55695895390036 10.629722348691232 H 0.0 **** 0.06
14486 C 11.51082834818223 126.83070143575637 90.10171221005174 C 0.0 **** -0.24
14487 H 11.115794441589884 126.77061685009164 91.11582657790561 H 0.0 **** 0.06
14488 H 10.827673083342148 126.32947028802337 89.41521955510748 H 0.0 **** 0.06
14489 H 12.485704504243131 126.34353035101921 90.06294676322548 H 0.0 **** 0.06
14490 H 11.613924007354598 127.87621322157821 89.81317583794342 H 0.0 **** 0.06
14491 C 105.75642965553814 32.495674360356446 120.55621460325165 C 0.0 **** -0.24
14492 H 105.98921910962392 32.68876672663953 121.60336182298317 H 0.0 **** 0.06
14493 H 105.85051802264505 33.41995977595414 119.98634291795327 H 0.0 **** 0.06
14494 H 104.73618237180327 32.11976740690048 120.47499040970308 H 0.0 **** 0.06
14495 H 106.44885857444385 31.752368343986774 120.16148527786095 H 0.0 **** 0.06
14496 C 14.538200322673255 137.12763441801349 133.7922541376648 C 0.0 **** -0.24
14497 H 13.692980888377278 137.00187117800914 134.4695964818304 H 0.0 **** 0.06
14498 H 14.66889048370443 138.18694855549506 133.56824388488772 H 0.0 **** 0.06
14499 H 14.347543996766376 136.58126618093863 132.86875546709908 H 0.0 **** 0.06
14500 H 15.44269303816715 136.74157890217967 134.2635385667318 H 0.0 **** 0.06
14501 C 108.49643157472323 107.72487023172691 1.1755878578982788 C 0.0 **** -0.24
14502 H 108.43281075456147 107.33978138309236 2.192937764815383 H 0.0 **** 0.06
14503 H 109.09727644369244 107.04756684412861 0.567581674689734 H 0.0 **** 0.06
14504 H 108.96183219918814 108.7112114683509 1.1895230000343986 H 0.0 **** 0.06
14505 H 107.49451382707295 107.80204169877216 0.7528038619885251 H 0.0 **** 0.06
14506 C 110.28732883601415 37.21195744858329 45.93082920480654 C 0.0 **** -0.24
14507 H 109.68843772826202 36.34189823810294 45.65840419535098 H 0.0 **** 0.06
14508 H 110.40915181078552 37.856373092967715 45.06004590888105 H 0.0 **** 0.06
14509 H 111.26660623990696 36.88234349338299 46.27990278365033 H 0.0 **** 0.06
14510 H 109.78493302266801 37.76364200357156 46.724517073929945 H 0.0 **** 0.06
14511 C 22.704923926414622 120.42446789757152 4.1376335720119926 C 0.0 **** -0.24
14512 H 23.430560051328428 120.98269931054533 4.7305946779760575 H 0.0 **** 0.06
14513 H 21.84403472848814 120.17597314621777 4.758066510691151 H 0.0 **** 0.06
14514 H 23.164895586324917 119.50762142088386 3.7700802144820784 H 0.0 **** 0.06
14515 H 22.382505040386775 121.03293652904578 3.2931586766175656 H 0.0 **** 0.06
14516 C 21.72157816986406 35.34008771818961 135.32929432524108 C 0.0 **** -0.24
14517 H 20.890732718635604 35.97747003764033 135.63371600783512 H 0.0 **** 0.06
14518 H 22.31148925627094 35.06994234520363 136.20602082217906 H 0.0 **** 0.06
14519 H 22.350448879701403 35.878740183846304 134.6197507462095 H 0.0 **** 0.06
14520 H 21.333166764481817 34.43752978551922 134.8593256262857 H 0.0 **** 0.06
14521 C 70.45131481049542 58.5664079234289 107.70248167426924 C 0.0 **** -0.24
14522 H 71.28928142183841 59.255682136606424 107.80664940102888 H 0.0 **** 0.06
14523 H 69.51568478279972 59.10901612683513 107.83781713549205 H 0.0 **** 0.06
14524 H 70.52978852726393 57.78308907774738 108.45587089969077 H 0.0 **** 0.06
14525 H 70.47154800265238 58.11842153880923 106.70882895394693 H 0.0 **** 0.06
14526 C 64.43657194070884 73.75548379805736 19.35537338990148 C 0.0 **** -0.24
14527 H 63.41864820065848 73.7214153022785 19.744523132917557 H 0.0 **** 0.06
14528 H 64.49598280808539 74.5002073303828 18.561692027908286 H 0.0 **** 0.06
14529 H 64.70735897732621 72.7775862164192 18.95764913419685 H 0.0 **** 0.06
14530 H 65.12336570018785 74.02416271523089 20.15866282310867 H 0.0 **** 0.06
14531 C 11.815563352313205 38.993735916040976 4.161539639178045 C 0.0 **** -0.24
14532 H 12.103677083240719 38.20498074914693 4.855813086750743 H 0.0 **** 0.06
14533 H 10.93620549369735 39.512041472405514 4.545391242553819 H 0.0 **** 0.06
14534 H 11.583178648291728 38.555658587630035 3.1906861403473954 H 0.0 **** 0.06
14535 H 12.636971450976255 39.70210172514436 4.054061688610318 H 0.0 **** 0.06
14536 C 10.17770589413766 34.203994814544615 51.53276394480275 C 0.0 **** -0.24
14537 H 11.030126141640608 34.77503154639368 51.16357874981276 H 0.0 **** 0.06
14538 H 10.120200739424149 33.254213981817486 51.00146139010383 H 0.0 **** 0.06
14539 H 9.261939899637156 34.770674607205194 51.36652158795988 H 0.0 **** 0.06
14540 H 10.301295399780315 34.01720446089939 52.599928380927025 H 0.0 **** 0.06
14541 C 134.87603431139 30.585477897669875 129.1338565979716 C 0.0 **** -0.24
14542 H 134.41550194661946 30.268280720037694 128.1974582580644 H 0.0 **** 0.06
14543 H 134.25182884191057 30.270246767815422 129.96932635533932 H 0.0 **** 0.06
14544 H 134.97264999146267 31.671068241149896 129.1412663153393 H 0.0 **** 0.06
14545 H 135.86279930103404 30.131893998225053 129.2245504724392 H 0.0 **** 0.06
14546 C 68.09307893259071 136.31610935543912 129.82234587707873 C 0.0 **** -0.24
14547 H 68.11766333240828 137.0611573055501 129.02654182131513 H 0.0 **** 0.06
14548 H 67.9187091478706 136.81130797753738 130.77689516443124 H 0.0 **** 0.06
14549 H 69.04657862248686 135.78814470277948 129.8547125361258 H 0.0 **** 0.06
14550 H 67.29005258011236 135.6051041733833 129.62925992342403 H 0.0 **** 0.06
14551 C 110.0888088587501 128.68063157940213 20.394551131085052 C 0.0 **** -0.24
14552 H 109.53944013788396 127.75978696152525 20.59168336431688 H 0.0 **** 0.06
14553 H 111.0310609911777 128.66478706063995 20.9421036472105 H 0.0 **** 0.06
14554 H 109.49485463910162 129.53474052051897 20.7169206632191 H 0.0 **** 0.06
14555 H 110.29095473297758 128.76038343228416 19.326138471441453 H 0.0 **** 0.06
14556 C 39.84598872092252 48.68531147861562 80.57992967247415 C 0.0 **** -0.24
14557 H 40.19195721429304 49.42673281675165 79.86015952186729 H 0.0 **** 0.06
14558 H 38.772459446501756 48.53683403682511 80.46136634340309 H 0.0 **** 0.06
14559 H 40.05626253166017 49.035325854847684 81.59079058158927 H 0.0 **** 0.06
14560 H 40.364743801248835 47.74194776947729 80.40657737624187 H 0.0 **** 0.06
14561 C 114.9391234065316 9.920653060590858 2.474944537876862 C 0.0 **** -0.24
14562 H 115.71169300979763 10.678938467136561 2.6061329103078457 H 0.0 **** 0.06
14563 H 114.05939380129307 10.37436701692809 2.018123588492827 H 0.0 **** 0.06
14564 H 114.67050955210452 9.504425786085378 3.4466288557769857 H 0.0 **** 0.06
14565 H 115.31576282307735 9.126075674522134 1.8305731868954176 H 0.0 **** 0.06
14566 C 92.35072824942478 116.32307823735403 14.944800332705597 C 0.0 **** -0.24
14567 H 92.91023283355258 116.13794114289044 15.861974139379583 H 0.0 **** 0.06
14568 H 92.44127211742995 115.46015008444465 14.285286349395335 H 0.0 **** 0.06
14569 H 92.75333506397237 117.20567914840802 14.446972735699433 H 0.0 **** 0.06
14570 H 91.30136459178863 116.48872169073792 15.18673837144712 H 0.0 **** 0.06
14571 C 117.4755019957447 30.807028474434873 46.704495619203556 C 0.0 **** -0.24
14572 H 118.21852049590932 30.116545640563288 46.306979824826215 H 0.0 **** 0.06
14573 H 116.97093539923215 30.347441367736337 47.55466804832656 H 0.0 **** 0.06
14574 H 116.74386890124136 31.039034217879276 45.92966447211256 H 0.0 **** 0.06
14575 H 117.96795900717534 31.72461974617042 47.02616818591039 H 0.0 **** 0.06
14576 C 131.0524915620757 121.12008814091485 93.05962807978463 C 0.0 **** -0.24
14577 H 131.4111190725184 120.79004631617215 94.03462531139871 H 0.0 **** 0.06
14578 H 131.2313042915906 122.1898669125876 92.95050295486953 H 0.0 **** 0.06
14579 H 129.9838950919973 120.9199663094123 92.9795234947677 H 0.0 **** 0.06
14580 H 131.58287108894748 120.58013890792887 92.27499421805356 H 0.0 **** 0.06
14581 C 1.7136451326600763 109.81865035231367 69.21234985945121 C 0.0 **** -0.24
14582 H 1.5802777270252477 110.68276374287196 68.56236675985578 H 0.0 **** 0.06
14583 H 1.0611405378608367 109.91262654566448 70.08113129390966 H 0.0 **** 0.06
14584 H 2.7523407334469425 109.76892089160886 69.54129877665413 H 0.0 **** 0.06
14585 H 1.4629187408650637 108.91013347309094 68.66536245093816 H 0.0 **** 0.06
14586 C 93.23325713047235 140.6568232257838 121.79125872889954 C 0.0 **** -0.24
14587 H 92.6739045272086 140.02994412778082 121.09683799415284 H 0.0 **** 0.06
14588 H 92.59492627579658 141.4670637105067 122.14381082392963 H 0.0 **** 0.06
14589 H 94.10332685715512 141.0736378186833 121.28288267683719 H 0.0 **** 0.06
14590 H 93.56026602355568 140.05616813809763 122.63940464850099 H 0.0 **** 0.06
14591 C 22.343398388183914 112.75153606656475 11.18770459979266 C 0.0 **** -0.24
14592 H 23.006503400975504 113.53654846441746 11.551779030572803 H 0.0 **** 0.06
14593 H 21.391551765467455 112.80569662332526 11.716446082250172 H 0.0 **** 0.06
14594 H 22.802845119397972 111.77862680893979 11.364210136278864 H 0.0 **** 0.06
14595 H 22.175387900836526 112.88544371861117 10.119225727592493 H 0.0 **** 0.06
14596 C 31.21867638708534 77.24695166863519 66.411044269309 C 0.0 **** -0.24
14597 H 30.471300614152995 76.45678593696096 66.47345749927416 H 0.0 **** 0.06
14598 H 31.256371106159918 77.63135282915148 65.39070714502833 H 0.0 **** 0.06
14599 H 32.19522419209403 76.84661013314191 66.68423459774732 H 0.0 **** 0.06
14600 H 30.952709865704776 78.05354780288755 67.09379045557455 H 0.0 **** 0.06
14601 C 68.98040043348381 32.67106269637848 25.508892558058605 C 0.0 **** -0.24
14602 H 69.88654549320985 33.064652060822226 25.049759262472634 H 0.0 **** 0.06
14603 H 68.10776010482019 33.11686347080045 25.031297088038684 H 0.0 **** 0.06
14604 H 68.97718776772432 32.91444859544423 26.571725993981914 H 0.0 **** 0.06
14605 H 68.95074727858746 31.588731617739327 25.383968519810935 H 0.0 **** 0.06
14606 C 110.94930003253383 109.16946199056879 98.7600159102706 C 0.0 **** -0.24
14607 H 111.50188968951487 108.69766783768362 97.94718575081666 H 0.0 **** 0.06
14608 H 109.8845080305809 108.96524263347548 98.64109404552336 H 0.0 **** 0.06
14609 H 111.11794132356614 110.24577525573564 98.73818166006858 H 0.0 **** 0.06
14610 H 111.29238339724888 108.76752756323022 99.71328628751807 H 0.0 **** 0.06
14611 C 94.1442629906658 121.011366720089 145.44703480026692 C 0.0 **** -0.24
14612 H 94.58964180358944 120.23669657990135 146.07147678836154 H 0.0 **** 0.06
14613 H 94.83662281570511 121.2746449150873 144.64727773135039 H 0.0 **** 0.06
14614 H 93.93848701376166 121.89322082255254 146.05443954406348 H 0.0 **** 0.06
14615 H 93.21405327046551 120.64189281839086 145.0159202104554 H 0.0 **** 0.06
14616 C 139.08536571781295 70.67802798504928 69.11960386850224 C 0.0 **** -0.24
14617 H 139.10102062943326 71.18522961834421 68.15536256750532 H 0.0 **** 0.06
14618 H 138.05636058939658 70.60066719300897 69.47336470878408 H 0.0 **** 0.06
14619 H 139.67545126843237 71.24617095407334 69.83889693659681 H 0.0 **** 0.06
14620 H 139.50702330783912 69.67850435566575 69.01100685746088 H 0.0 **** 0.06
14621 C 86.34497367052035 90.20562095549506 69.07129589524831 C 0.0 **** -0.24
14622 H 85.48678773809829 90.34548925460548 69.72871712027987 H 0.0 **** 0.06
14623 H 86.78776021108251 89.22625811395595 69.25551979785519 H 0.0 **** 0.06
14624 H 87.08448837181801 90.9814706293731 69.2691523604773 H 0.0 **** 0.06
14625 H 86.02086183666476 90.26821240450764 68.03273790322933 H 0.0 **** 0.06
14626 C 118.46771727268195 22.985173879134408 60.84825008211351 C 0.0 **** -0.24
14627 H 119.42730704779747 22.56618728984222 61.153313445572905 H 0.0 **** 0.06
14628 H 118.06192706085976 22.39925433707171 60.02313765331935 H 0.0 **** 0.06
14629 H 118.60819866132694 24.017198338838597 60.526237026644 H 0.0 **** 0.06
14630 H 117.7754944112166 22.957625140237695 61.689551132108534 H 0.0 **** 0.06
14631 C 13.595507902055346 132.25474061465113 37.68676583355499 C 0.0 **** -0.24
14632 H 13.431740610077554 131.46130967695163 36.95762557747168 H 0.0 **** 0.06
14633 H 13.61558105107585 131.82822419483796 38.69015895345359 H 0.0 **** 0.06
14634 H 12.788177870475266 132.98363238753643 37.618210124727966 H 0.0 **** 0.06
14635 H 14.546532076592968 132.74579619927857 37.48106867856661 H 0.0 **** 0.06
14636 C 130.31886377492071 96.76400271969447 3.861255451451683 C 0.0 **** -0.24
14637 H 130.489257326445 96.8712518410646 4.9324120934565485 H 0.0 **** 0.06
14638 H 129.25906510939876 96.58074350754853 3.6793053949853345 H 0.0 **** 0.06
14639 H 130.90284250818877 95.92549638851531 3.4838686471605627 H 0.0 **** 0.06
14640 H 130.62305268827936 97.67816868872748 3.3523246655441596 H 0.0 **** 0.06
14641 C 29.51309117909301 98.8749932706568 129.24073661414042 C 0.0 **** -0.24
14642 H 28.806451319263545 98.2888204661291 128.6529360839859 H 0.0 **** 0.06
14643 H 29.11748590652843 99.01737203387752 130.2462497372334 H 0.0 **** 0.06
14644 H 29.66122398341838 99.84529193288817 128.76734137800332 H 0.0 **** 0.06
14645 H 30.464572946511737 98.34763844104764 129.2952540582155 H 0.0 **** 0.06
14646 C 41.18294062344654 102.06524479756695 134.5747548950533 C 0.0 **** -0.24
14647 H 40.509344424178764 102.08288730168994 133.71846185939282 H 0.0 **** 0.06
14648 H 40.63222537565876 102.33717605445224 135.4761338799293 H 0.0 **** 0.06
14649 H 41.991818622555044 102.77804212524512 134.4141645751583 H 0.0 **** 0.06
14650 H 41.597890695933216 101.06399973976119 134.68955322750088 H 0.0 **** 0.06
14651 C 24.381064339696536 13.199324363330618 84.61320561611265 C 0.0 **** -0.24
14652 H 24.15050887282544 13.204468612061106 85.67759582780462 H 0.0 **** 0.06
14653 H 25.12050422653231 13.970735982132254 84.39826687579102 H 0.0 **** 0.06
14654 H 23.472702827813436 13.397223564609789 84.04337037206307 H 0.0 **** 0.06
14655 H 24.780489833112654 12.224573863845563 84.33263539613284 H 0.0 **** 0.06
14656 C 143.51799527550043 70.31345068344359 126.0467587096183 C 0.0 **** -0.24
14657 H 142.88097897318684 70.45837732248447 125.17403171260645 H 0.0 **** 0.06
14658 H 144.45795606299302 70.84637337037599 125.90181029328849 H 0.0 **** 0.06
14659 H 143.7200434310222 69.24916251313522 126.17507555425189 H 0.0 **** 0.06
14660 H 143.0142646840565 70.69760526438986 126.93262583129079 H 0.0 **** 0.06
14661 C 133.14137882182146 144.43014436155082 89.18194996864935 C 0.0 **** -0.24
14662 H 132.4308559345429 144.02521672204574 89.90215320636258 H 0.0 **** 0.06
14663 H 133.84901470161228 145.08115103071424 89.69650582393439 H 0.0 **** 0.06
14664 H 132.6047223236384 145.00315311281216 88.42480682762928 H 0.0 **** 0.06
14665 H 133.68073430873116 143.61245708571013 88.70427638132041 H 0.0 **** 0.06
14666 C 122.05049390802745 58.91945836133479 54.2002595036233 C 0.0 **** -0.24
14667 H 121.2314877568015 59.49519435783333 54.63236935141683 H 0.0 **** 0.06
14668 H 122.91344012672297 59.57033416190475 54.05460760815521 H 0.0 **** 0.06
14669 H 121.73844030672049 58.5081283335106 53.240870111196784 H 0.0 **** 0.06
14670 H 122.3175837256019 58.10685408545797 54.875595864893086 H 0.0 **** 0.06
14671 C 112.0550932753977 28.873536640177093 82.13333926213507 C 0.0 **** -0.24
14672 H 111.79368318039266 29.91089400825973 82.34290156999447 H 0.0 **** 0.06
14673 H 113.01485493977455 28.641724195481515 82.59288506547739 H 0.0 **** 0.06
14674 H 112.12243674899045 28.727671525883324 81.05477347105224 H 0.0 **** 0.06
14675 H 111.28693640313705 28.215911682245377 82.54086883549192 H 0.0 **** 0.06
14676 C 122.56189374105598 136.5961516178324 125.10415318961861 C 0.0 **** -0.24
14677 H 122.33981945782857 136.9255568357906 124.08980263302084 H 0.0 **** 0.06
14678 H 123.63512713598003 136.4294684733957 125.20518675272166 H 0.0 **** 0.06
14679 H 122.02914410056003 135.66722685326155 125.30929589486891 H 0.0 **** 0.06
14680 H 122.24456518426673 137.3610242261192 125.81257774756943 H 0.0 **** 0.06
14681 C 139.1540901271897 10.375405473413423 70.57512842682793 C 0.0 **** -0.24
14682 H 138.5899043722523 11.201576874149367 70.14102106697592 H 0.0 **** 0.06
14683 H 138.52863750067235 9.846628200916768 71.29372738608546 H 0.0 **** 0.06
14684 H 140.03820095739218 10.764542301277004 71.07926474526033 H 0.0 **** 0.06
14685 H 139.4596249036229 9.69065107780375 69.78408303639507 H 0.0 **** 0.06
14686 C 101.15351140117417 93.5845108774968 39.63060736540666 C 0.0 **** -0.24
14687 H 100.9221906850148 93.75381587546772 38.578579572631384 H 0.0 **** 0.06
14688 H 100.91979221421056 92.55249677094022 39.89280220895233 H 0.0 **** 0.06
14689 H 100.55942870650892 94.25968464598881 40.24665690868386 H 0.0 **** 0.06
14690 H 102.21293394031748 93.77286262870336 39.80389726172365 H 0.0 **** 0.06
14691 C 24.458332047500825 0.6292360727257176 45.71336074802892 C 0.0 **** -0.24
14692 H 23.95778507098825 0.013701586609414562 44.96585896146938 H 0.0 **** 0.06
14693 H 25.31868836516351 1.1225870804217095 45.25987013408178 H 0.0 **** 0.06
14694 H 24.79267859351853 -0.0001862492304951502 46.537720377779976 H 0.0 **** 0.06
14695 H 23.763203506797502 1.3809302747630738 46.08798196499315 H 0.0 **** 0.06
14696 C 81.37806722244403 120.90333887358953 4.435514178639835 C 0.0 **** -0.24
14697 H 80.9881366262847 121.51222383883977 5.25166499806727 H 0.0 **** 0.06
14698 H 80.63905145448518 120.85313771126256 3.6357289299770628 H 0.0 **** 0.06
14699 H 81.58778368942842 119.89749362734729 4.801432620391381 H 0.0 **** 0.06
14700 H 82.2959088232646 121.350898995572 4.055859630291252 H 0.0 **** 0.06
14701 C 65.68171886918438 21.047698828098113 111.21529751660968 C 0.0 **** -0.24
14702 H 65.95218955784867 22.065777597056027 110.93718589444781 H 0.0 **** 0.06
14703 H 66.34057847386113 20.701213834893892 112.01156949989353 H 0.0 **** 0.06
14704 H 65.78442751895466 20.395300270076042 110.348565770127 H 0.0 **** 0.06
14705 H 64.64967992607323 21.028503610366663 111.56386890197014 H 0.0 **** 0.06
14706 C 137.64353192538542 104.21268980386566 12.742158467457863 C 0.0 **** -0.24
14707 H 138.17819379745023 105.07505902063922 12.34343810019363 H 0.0 **** 0.06
14708 H 138.2802462512618 103.33050582695051 12.68107521949834 H 0.0 **** 0.06
14709 H 136.73542895191687 104.04741405005747 12.162405235240485 H 0.0 **** 0.06
14710 H 137.3802185714555 104.39874611412753 13.7839660679292 H 0.0 **** 0.06
14711 C 98.29676012924858 143.26768258651836 21.92985093712646 C 0.0 **** -0.24
14712 H 99.01391952036393 143.3890921512493 21.11821123302053 H 0.0 **** 0.06
14713 H 98.74831840730936 142.67714455091877 22.727321230076953 H 0.0 **** 0.06
14714 H 97.40950994198344 142.75607333918126 21.555810815103726 H 0.0 **** 0.06
14715 H 98.01649936023064 144.24753085908893 22.31640126903116 H 0.0 **** 0.06
14716 C 123.76999397847555 90.34696322697565 107.77961920757177 C 0.0 **** -0.24
14717 H 124.03348406272642 90.5012908446536 106.73300854369488 H 0.0 **** 0.06
14718 H 123.29561842007452 89.3720275941944 107.89462906205473 H 0.0 **** 0.06
14719 H 123.07819650905682 91.12735667486677 108.09834208308409 H 0.0 **** 0.06
14720 H 124.67077423388885 90.38789966654767 108.39113371189124 H 0.0 **** 0.06
14721 C 141.62317131641225 95.84745100284118 41.93709185380099 C 0.0 **** -0.24
14722 H 142.19620100164465 96.69536130827692 42.312135830619326 H 0.0 **** 0.06
14723 H 140.88368466662385 96.19936513822302 41.21640543197476 H 0.0 **** 0.06
14724 H 141.11582897741116 95.35600992357445 42.76754614712192 H 0.0 **** 0.06
14725 H 142.29645671688363 95.14038405649131 41.45222485114968 H 0.0 **** 0.06
14726 C 64.14659518362382 129.81927455858425 49.28330659105136 C 0.0 **** -0.24
14727 H 64.55775728453554 128.83224295131254 49.071079733164666 H 0.0 **** 0.06
14728 H 64.86798314915723 130.5832232974486 48.99354182657444 H 0.0 **** 0.06
14729 H 63.936337276470596 129.90350443725703 50.349564928012484 H 0.0 **** 0.06
14730 H 63.22438907657579 129.95658155589686 48.71826358173614 H 0.0 **** 0.06
14731 C 10.790737173093305 22.231978100444053 12.615200807236079 C 0.0 **** -0.24
14732 H 11.615369619446511 21.708661642902968 13.099318681841964 H 0.0 **** 0.06
14733 H 11.113575011370756 22.59219819998225 11.639236650102646 H 0.0 **** 0.06
14734 H 10.484519121839696 23.07740728754655 13.232540225825005 H 0.0 **** 0.06
14735 H 9.949794019505703 21.549746888040602 12.492135510918843 H 0.0 **** 0.06
14736 C 8.375384304991833 132.99567993929756 4.748014181208788 C 0.0 **** -0.24
14737 H 8.673874213800577 133.8994242682904 4.216762021164158 H 0.0 **** 0.06
14738 H 8.364743909092368 133.1912377290952 5.819807438011765 H 0.0 **** 0.06
14739 H 9.083361236567136 132.1969863948473 4.530728409594843 H 0.0 **** 0.06
14740 H 7.379108161595614 132.69634983599136 4.422276189723618 H 0.0 **** 0.06
14741 C 81.8856623408233 93.99779114059322 125.28883690667806 C 0.0 **** -0.24
14742 H 82.11666556583138 94.05663589083805 124.22510070203043 H 0.0 **** 0.06
14743 H 82.79456879321359 94.16675061862094 125.86733557145823 H 0.0 **** 0.06
14744 H 81.48605710396575 93.00924401166004 125.51855019275592 H 0.0 **** 0.06
14745 H 81.1453955444241 94.75667250754445 125.54223192947427 H 0.0 **** 0.06
14746 C 69.14799890404576 1.536421031578186 42.757540948802614 C 0.0 **** -0.24
14747 H 69.68488608691152 2.3227146839651596 43.28767990937041 H 0.0 **** 0.06
14748 H 69.59882391532018 1.3870606104178194 41.77643536274695 H 0.0 **** 0.06
14749 H 68.10439579032604 1.8258363257486678 42.63847299001651 H 0.0 **** 0.06
14750 H 69.20438356406297 0.6096742438433864 43.328839532623135 H 0.0 **** 0.06
14751 C 60.8817061433479 14.785143509602449 112.09137594392871 C 0.0 **** -0.24
14752 H 60.745205706321144 14.928867126076796 111.01876225631594 H 0.0 **** 0.06
14753 H 61.80556572517068 15.270430472165174 112.40676927062441 H 0.0 **** 0.06
14754 H 60.93799843612635 13.71888469644773 112.31118092606374 H 0.0 **** 0.06
14755 H 60.03942788145477 15.223865651839162 112.62635361472479 H 0.0 **** 0.06
14756 C 124.84654169014803 141.04406621417436 96.38023126592596 C 0.0 **** -0.24
14757 H 125.77501658344427 140.69731916463672 96.83380457789107 H 0.0 **** 0.06
14758 H 124.99556230512836 141.18043174187153 95.30870700891832 H 0.0 **** 0.06
14759 H 124.55386209156137 141.99240259391465 96.83063958039818 H 0.0 **** 0.06
14760 H 124.06256123896983 140.30498454486576 96.54795387562869 H 0.0 **** 0.06
14761 C 134.23158881697745 97.80899885727618 24.551951906737102 C 0.0 **** -0.24
14762 H 133.80200922456018 98.66099622409732 24.025336542111177 H 0.0 **** 0.06
14763 H 135.31849133261764 97.84244190535884 24.47091844763247 H 0.0 **** 0.06
14764 H 133.8620349582192 96.8841081850533 24.10908726919083 H 0.0 **** 0.06
14765 H 133.9438197525129 97.84844911459535 25.602465368013853 H 0.0 **** 0.06
14766 C 66.78974506837352 112.50767183874315 33.79356725903497 C 0.0 **** -0.24
14767 H 66.2168897353892 112.60504187594437 34.714868874779725 H 0.0 **** 0.06
14768 H 67.79339041497423 112.15061660005695 34.02544112797058 H 0.0 **** 0.06
14769 H 66.85257270494833 113.476911972612 33.300188002906395 H 0.0 **** 0.06
14770 H 66.29500800643274 111.79563200784524 33.13251700103886 H 0.0 **** 0.06
14771 C 98.113921534219 94.96102136936028 145.17123519701127 C 0.0 **** -0.24
14772 H 97.95055877226538 95.93277931439371 145.63703021065382 H 0.0 **** 0.06
14773 H 98.32912692477659 95.09838643102984 144.1113949302492 H 0.0 **** 0.06
14774 H 97.21902473221786 94.34908257070482 145.28385185682188 H 0.0 **** 0.06
14775 H 98.95597103679175 94.46499887004921 145.65186304042632 H 0.0 **** 0.06
14776 C 115.21972786414948 97.76481541573546 134.9514496474373 C 0.0 **** -0.24
14777 H 114.61372947211557 98.38288314808685 135.61417141283655 H 0.0 **** 0.06
14778 H 114.75117613446945 97.71857647389062 133.9683280182067 H 0.0 **** 0.06
14779 H 115.29850281197672 96.75976848435842 135.36482118778628 H 0.0 **** 0.06
14780 H 116.21516392733916 98.20031995651891 134.8603905013149 H 0.0 **** 0.06
14781 C 18.749326868129522 44.15254055076262 92.89573785786789 C 0.0 **** -0.24
14782 H 19.36719004696868 44.96298665523213 92.50918890127153 H 0.0 **** 0.06
14783 H 18.37879934116991 43.551517249359065 92.06469677279803 H 0.0 **** 0.06
14784 H 17.907163661038936 44.57046085619859 93.44691898022234 H 0.0 **** 0.06
14785 H 19.343911640620526 43.52720787144209 93.56076855617104 H 0.0 **** 0.06
14786 C 23.851389050775538 37.15145912047874 36.287351301161635 C 0.0 **** -0.24
14787 H 24.172515995776173 36.17882409488734 36.658624030833636 H 0.0 **** 0.06
14788 H 22.769535176844478 37.149281058452544 36.15220185399073 H 0.0 **** 0.06
14789 H 24.33665035620784 37.35341957297791 35.33139919711181 H 0.0 **** 0.06
14790 H 24.1280157281696 37.923503961646105 37.00518020149329 H 0.0 **** 0.06
14791 C 26.435066719003487 57.87329846774011 57.81000717531484 C 0.0 **** -0.24
14792 H 25.949188754535328 57.78383224953441 58.78148403288574 H 0.0 **** 0.06
14793 H 25.676991095800332 57.91778451807804 57.02808375484045 H 0.0 **** 0.06
14794 H 27.079080566356765 57.00943098370925 57.64497070156111 H 0.0 **** 0.06
14795 H 27.035327888326435 58.783484547014154 57.78725245882342 H 0.0 **** 0.06
14796 C 117.38491814483108 136.07146282686503 134.65728807892435 C 0.0 **** -0.24
14797 H 117.97090883646457 136.91307192158476 135.02653316608712 H 0.0 **** 0.06
14798 H 117.36312410175775 136.0943035596116 133.56717970321552 H 0.0 **** 0.06
14799 H 116.36781111929655 136.13986735281463 135.04343834035575 H 0.0 **** 0.06
14800 H 117.83878613893104 135.13860431295274 134.99228919597834 H 0.0 **** 0.06
14801 C 4.365942613180355 46.232893518289984 97.11213185431265 C 0.0 **** -0.24
14802 H 3.941278290936868 47.2101959251396 96.88039674337394 H 0.0 **** 0.06
14803 H 5.3877450031439515 46.357133420769 97.4721516646075 H 0.0 **** 0.06
14804 H 4.369285526810376 45.61605288046175 96.21380378371279 H 0.0 **** 0.06
14805 H 3.7649267624695035 45.750329471713826 97.88255561070382 H 0.0 **** 0.06
14806 C 61.64390437818474 49.60397720459771 59.09276710166185 C 0.0 **** -0.24
14807 H 61.944632463516655 48.90047510610319 58.316345620732676 H 0.0 **** 0.06
14808 H 61.085176281316876 49.07460247030568 59.864944688625684 H 0.0 **** 0.06
14809 H 61.015500133687965 50.38003488262137 58.65646966119991 H 0.0 **** 0.06
14810 H 62.53137567263968 50.059459487058206 59.5330357962184 H 0.0 **** 0.06
14811 C 94.37122888011086 143.20021065079197 5.366084506179018 C 0.0 **** -0.24
14812 H 94.74907964647338 142.55822168093724 6.161439038125401 H 0.0 **** 0.06
14813 H 93.28108121466644 143.19445995676242 5.382268458479455 H 0.0 **** 0.06
14814 H 94.7227386497731 142.82830326407287 4.403371828572617 H 0.0 **** 0.06
14815 H 94.73288835091026 144.21721585789513 5.516748765333151 H 0.0 **** 0.06
14816 C 59.27760845717634 101.39508979562044 64.77597539621438 C 0.0 **** -0.24
14817 H 59.97366112681992 100.88106742865256 65.43847789628562 H 0.0 **** 0.06
14818 H 59.30901430231111 100.93441979263599 63.78805142875677 H 0.0 **** 0.06
14819 H 59.55977227157959 102.44524116221817 64.69698419123432 H 0.0 **** 0.06
14820 H 58.268435344703335 101.31838696010198 65.18088922381702 H 0.0 **** 0.06
14821 C 128.99161756686604 78.37670114558945 47.34475294543542 C 0.0 **** -0.24
14822 H 129.69457227526252 77.65336385352042 47.75773203453845 H 0.0 **** 0.06
14823 H 128.1836178251252 78.54452617568816 48.056905370739415 H 0.0 **** 0.06
14824 H 128.5803484341359 77.99081981129518 46.411795171355124 H 0.0 **** 0.06
14825 H 129.50938070917286 79.31720937775097 47.15292086185018 H 0.0 **** 0.06
14826 C 1.431463093887487 129.34106483748613 16.11242387793194 C 0.0 **** -0.24
14827 H 0.3582316964835286 129.17120539275535 16.030113461117615 H 0.0 **** 0.06
14828 H 1.6166709116736797 130.3895954377867 16.34791822559704 H 0.0 **** 0.06
14829 H 1.9123043000097937 129.0908035004278 15.166464090585364 H 0.0 **** 0.06
14830 H 1.8396643419412158 128.71340294997827 16.904015409770416 H 0.0 **** 0.06
14831 C 21.537056374669362 106.2266165105486 112.08293518081119 C 0.0 **** -0.24
14832 H 22.43222419749543 105.60815675147451 112.1424327377966 H 0.0 **** 0.06
14833 H 20.96582876328017 105.95485680496218 111.19452613504383 H 0.0 **** 0.06
14834 H 21.825603040633155 107.27675761203828 112.02268193094703 H 0.0 **** 0.06
14835 H 20.926175586266424 106.06902581816887 112.97110615427228 H 0.0 **** 0.06
14836 C 22.10432423099646 109.69601045298653 115.53294165268879 C 0.0 **** -0.24
14837 H 22.3483730092344 109.34913755296954 116.53692834151717 H 0.0 **** 0.06
14838 H 21.95373783639637 110.77621315379427 115.54852470844436 H 0.0 **** 0.06
14839 H 21.192368627648776 109.20692802110175 115.19088721485811 H 0.0 **** 0.06
14840 H 22.9235569782403 109.45366394031136 114.85678285126473 H 0.0 **** 0.06
14841 C 101.20033390467849 74.07612242179903 143.14040782950983 C 0.0 **** -0.24
14842 H 101.35380453559883 73.03211090668606 142.86601276958308 H 0.0 **** 0.06
14843 H 100.18911593146068 74.20542793514682 143.52528204407196 H 0.0 **** 0.06
14844 H 101.33884203985103 74.70627467314841 142.26182059027553 H 0.0 **** 0.06
14845 H 101.92109461867848 74.35976898905847 143.90715126984745 H 0.0 **** 0.06
14846 C 13.877926697845822 54.61584516023591 69.76148432608618 C 0.0 **** -0.24
14847 H 13.059052331340382 54.885599555309284 69.09542638223787 H 0.0 **** 0.06
14848 H 14.245941261031504 55.50977334539587 70.26595495767094 H 0.0 **** 0.06
14849 H 14.684505708851077 54.16668370152843 69.1822631534781 H 0.0 **** 0.06
14850 H 13.52252839660511 53.90046833824056 70.50269881519695 H 0.0 **** 0.06
14851 C 100.90350905800162 92.65757836671287 55.340135484808656 C 0.0 **** -0.24
14852 H 100.54000769394942 93.62219261379643 54.986804222557424 H 0.0 **** 0.06
14853 H 101.35066527540198 92.77780927474059 56.32733038947046 H 0.0 **** 0.06
14854 H 101.65236212071117 92.27482486108623 54.64578341433872 H 0.0 **** 0.06
14855 H 100.07129375202763 91.95643765674095 55.39961883538527 H 0.0 **** 0.06
14856 C 145.14511915590052 57.89430263187556 1.4148508654139746 C 0.0 **** -0.24
14857 H 144.49762192269955 58.2368221026407 2.222256994898217 H 0.0 **** 0.06
14858 H 146.18554784506748 57.959846284256145 1.7311940565614634 H 0.0 **** 0.06
14859 H 144.9908927457188 58.52120147489403 0.5368708365315484 H 0.0 **** 0.06
14860 H 144.90270842010895 56.859830736725414 1.169249810164846 H 0.0 **** 0.06
14861 C 126.65475301252512 63.16337470570548 14.03879852944678 C 0.0 **** -0.24
14862 H 127.40040144883494 62.40091604229838 14.265536529161636 H 0.0 **** 0.06
14863 H 127.15647220093683 64.09622040894946 13.779772109299643 H 0.0 **** 0.06
14864 H 126.02032001003909 63.32190251519542 14.91073693731849 H 0.0 **** 0.06
14865 H 126.0426887244117 62.83406657445221 13.19944500705509 H 0.0 **** 0.06
14866 C 58.98380575661926 20.1002895401829 6.563788132329506 C 0.0 **** -0.24
14867 H 58.00598053355364 20.19588708429214 7.036283484612028 H 0.0 **** 0.06
14868 H 59.18161478143796 19.049021036334835 6.349792558369074 H 0.0 **** 0.06
14869 H 59.7507984450244 20.485207157103332 7.235501255808231 H 0.0 **** 0.06
14870 H 58.99548829650516 20.669136412547488 5.635177578631755 H 0.0 **** 0.06
14871 C 126.35003641245302 99.42021495375354 91.97074963649794 C 0.0 **** -0.24
14872 H 125.6179109671555 98.81407506740689 91.43653460734103 H 0.0 **** 0.06
14873 H 126.42537638532846 99.07333880514724 93.0017660094924 H 0.0 **** 0.06
14874 H 126.03480856536564 100.46402716924828 91.95996074864249 H 0.0 **** 0.06
14875 H 127.32062383778063 99.32880109062316 91.48397204977667 H 0.0 **** 0.06
14876 C 63.0586709073673 85.61005211926454 18.70199590700954 C 0.0 **** -0.24
14877 H 63.036825449969214 86.25350576372489 17.822693876147085 H 0.0 **** 0.06
14878 H 63.92371689058932 85.86239317555476 19.316019012495104 H 0.0 **** 0.06
14879 H 63.12698651929743 84.5682009382171 18.388094625909467 H 0.0 **** 0.06
14880 H 62.14647672944686 85.75539194311028 19.281339541591464 H 0.0 **** 0.06
14881 C 82.84434793422342 106.15920772714146 6.6493137645507545 C 0.0 **** -0.24
14882 H 83.77912324781374 106.38040916396467 7.1634157848606606 H 0.0 **** 0.06
14883 H 82.05089243353338 106.78983778803492 7.051403341407934 H 0.0 **** 0.06
14884 H 82.58718187078959 105.11044863690147 6.799416738902153 H 0.0 **** 0.06
14885 H 82.960194184757 106.35613531966469 5.583019193032044 H 0.0 **** 0.06
14886 C 121.16766146568533 29.293935020334686 13.320152880859553 C 0.0 **** -0.24
14887 H 121.82056706846616 28.763959262123706 14.013586267675521 H 0.0 **** 0.06
14888 H 121.76833095521575 29.9319286159091 12.671972946507424 H 0.0 **** 0.06
14889 H 120.46195775868667 29.906315195793184 13.88145733880856 H 0.0 **** 0.06
14890 H 120.62012066731187 28.57184261720556 12.713453956942601 H 0.0 **** 0.06
14891 C 13.849049802194344 29.07389089945648 23.404651078880107 C 0.0 **** -0.24
14892 H 13.141880907764829 29.55808730751702 24.078341588155126 H 0.0 **** 0.06
14893 H 13.38474935334429 28.938128172596016 22.428102845569015 H 0.0 **** 0.06
14894 H 14.132788376669424 28.10358546946822 23.811404888658245 H 0.0 **** 0.06
14895 H 14.736824679776419 29.69794517476479 23.30123960722642 H 0.0 **** 0.06
14896 C 34.81371200677219 117.0940699772611 83.20105782625771 C 0.0 **** -0.24
14897 H 35.819410531086874 117.4624929333065 83.40146956825718 H 0.0 **** 0.06
14898 H 34.363729698711154 117.68351591654395 82.40140830372457 H 0.0 **** 0.06
14899 H 34.2085998357405 117.18318026647357 84.10309524170016 H 0.0 **** 0.06
14900 H 34.86306482739397 116.04800706238187 82.89865647897624 H 0.0 **** 0.06
14901 C 114.35846313897841 54.60331468564584 19.816455365816523 C 0.0 **** -0.24
14902 H 115.40629686226359 54.30352110617258 19.78297056881317 H 0.0 **** 0.06
14903 H 113.77594290750287 53.83220368600075 20.320298485606855 H 0.0 **** 0.06
14904 H 113.98582068826269 54.73577893703845 18.801190039977456 H 0.0 **** 0.06
14905 H 114.26752591118051 55.54239381543982 20.36262175037649 H 0.0 **** 0.06
14906 C 102.88459944398372 5.966067448098233 142.08227455821404 C 0.0 **** -0.24
14907 H 101.9994590080102 5.379864220438751 142.33092917281976 H 0.0 **** 0.06
14908 H 102.97662842161044 6.040246780542475 140.9984881352765 H 0.0 **** 0.06
14909 H 103.76934717523379 5.478049625080953 142.49038719756507 H 0.0 **** 0.06
14910 H 102.79009305690796 6.964905108163034 142.50873415111718 H 0.0 **** 0.06
14911 C 19.046487076919703 107.2773858254826 22.670579755123555 C 0.0 **** -0.24
14912 H 18.209409490901834 107.60708333604562 22.055085995125324 H 0.0 **** 0.06
14913 H 19.099935897759536 106.18803816147128 22.657740102839114 H 0.0 **** 0.06
14914 H 18.901887421896532 107.62218107399057 23.694496781553852 H 0.0 **** 0.06
14915 H 19.973868422440233 107.69135557192935 22.27428970889133 H 0.0 **** 0.06
14916 C 7.841141738243195 142.0607714479371 108.32532679209032 C 0.0 **** -0.24
14917 H 8.576692614774096 142.4179596656629 107.60355782237986 H 0.0 **** 0.06
14918 H 7.5349412464734655 142.8850984531716 108.96912577341266 H 0.0 **** 0.06
14919 H 8.282612626668449 141.26962223037995 108.93150191004213 H 0.0 **** 0.06
14920 H 6.971828197249785 141.67154731647247 107.79458723865486 H 0.0 **** 0.06
14921 C 68.55297495147488 106.436258878067 138.2954847259583 C 0.0 **** -0.24
14922 H 68.83563333209895 106.1420732409798 137.28475383025554 H 0.0 **** 0.06
14923 H 68.46455628318739 105.54865728990596 138.92084174086145 H 0.0 **** 0.06
14924 H 67.59689700492186 106.95863553817553 138.26706876232114 H 0.0 **** 0.06
14925 H 69.31585874837134 107.0972378779892 138.7069406457704 H 0.0 **** 0.06
14926 C 53.44787965368462 84.89944149542717 32.20717496535619 C 0.0 **** -0.24
14927 H 53.11762798537984 84.66041527597162 33.21727304392677 H 0.0 **** 0.06
14928 H 52.979400627470994 85.82836914726587 31.88199545050192 H 0.0 **** 0.06
14929 H 53.16370277289113 84.09242011818097 31.5319995179672 H 0.0 **** 0.06
14930 H 54.53177993775196 85.01556805116891 32.19759856658555 H 0.0 **** 0.06
14931 C 35.609603887367086 135.73764030407287 144.08280494983893 C 0.0 **** -0.24
14932 H 36.347898664816285 136.1899495112625 144.7452920204623 H 0.0 **** 0.06
14933 H 35.226565758082266 134.82308757858024 144.5367796726599 H 0.0 **** 0.06
14934 H 36.07587158305517 135.50174697713072 143.12646994056647 H 0.0 **** 0.06
14935 H 34.78778944314918 136.43606844532357 143.92403133815367 H 0.0 **** 0.06
14936 C 26.128339842977596 87.68896637660211 85.16684031388803 C 0.0 **** -0.24
14937 H 26.929121901517448 86.95002239615948 85.15313784570515 H 0.0 **** 0.06
14938 H 25.43590566159125 87.48983093840113 84.34862035566613 H 0.0 **** 0.06
14939 H 26.553535631689044 88.686769573909 85.04874156153579 H 0.0 **** 0.06
14940 H 25.596217276703868 87.63181261231435 86.1156884884328 H 0.0 **** 0.06
14941 C 6.545932006573167 138.13360018333952 134.8908929885614 C 0.0 **** -0.24
14942 H 6.344670424805457 137.11605613647362 134.55473258054764 H 0.0 **** 0.06
14943 H 6.84590941139021 138.11732733971752 135.93840987298142 H 0.0 **** 0.06
14944 H 5.646094258098316 138.73805405049194 134.77924881886307 H 0.0 **** 0.06
14945 H 7.3483356017544565 138.56192887060658 134.28936747099246 H 0.0 **** 0.06
14946 C 112.16287193749116 48.271304228005135 54.51767528948284 C 0.0 **** -0.24
14947 H 111.16515690564592 47.86084526903018 54.35925150877301 H 0.0 **** 0.06
14948 H 112.90724805082698 47.49209184768169 54.349719269309844 H 0.0 **** 0.06
14949 H 112.24552459822644 48.63858975727952 55.5409107472226 H 0.0 **** 0.06
14950 H 112.33280657545282 49.09261841934833 53.82195401885048 H 0.0 **** 0.06
14951 C 118.14895530999175 93.03553624983851 2.9249313095535854 C 0.0 **** -0.24
14952 H 118.27875737663865 93.83128455465811 2.1915249088520987 H 0.0 **** 0.06
14953 H 117.08993657847341 92.92765202010025 3.159806224037986 H 0.0 **** 0.06
14954 H 118.69975433555382 93.28389813795434 3.8322205182797084 H 0.0 **** 0.06
14955 H 118.5284481079789 92.09907635723306 2.5152851061984443 H 0.0 **** 0.06
14956 C 68.51569417825542 29.190909804113176 95.42689467904309 C 0.0 **** -0.24
14957 H 69.21113497238281 29.00111177118268 96.24452033181123 H 0.0 **** 0.06
14958 H 67.70477905587572 29.828646339537414 95.7817506559426 H 0.0 **** 0.06
14959 H 68.10640839006794 28.245048512373614 95.07227171152353 H 0.0 **** 0.06
14960 H 69.03948330274335 29.688937797048396 94.61187265221707 H 0.0 **** 0.06
14961 C 15.71130093954261 141.2031182154599 81.20990014023191 C 0.0 **** -0.24
14962 H 15.684341670077572 142.214465966969 81.61421532982358 H 0.0 **** 0.06
14963 H 14.97481804483948 141.11067765579088 80.41242629528261 H 0.0 **** 0.06
14964 H 15.48116801562071 140.48967339254253 82.00200826106038 H 0.0 **** 0.06
14965 H 16.706000715751458 140.9967138170021 80.81356755269651 H 0.0 **** 0.06
14966 C 55.10493008220199 65.78176037507812 70.04313541031948 C 0.0 **** -0.24
14967 H 54.88591844593985 66.76643996110171 70.45579253345133 H 0.0 **** 0.06
14968 H 55.51679819210396 65.89144171642928 69.03964520902392 H 0.0 **** 0.06
14969 H 54.18772406778136 65.19471273744699 69.99822342711181 H 0.0 **** 0.06
14970 H 55.829065562951484 65.27472959943118 70.68024957776854 H 0.0 **** 0.06
14971 C 137.75052770328418 6.480171841779992 23.644691696525094 C 0.0 **** -0.24
14972 H 136.71246279296452 6.506865107793061 23.313594128073497 H 0.0 **** 0.06
14973 H 137.90890818624476 5.605751826045832 24.276152043449088 H 0.0 **** 0.06
14974 H 137.9745840522716 7.383682404048329 24.21126762986991 H 0.0 **** 0.06
14975 H 138.40663826594 6.423994075293052 22.775383961427963 H 0.0 **** 0.06
14976 C 58.490109186084226 95.6447902522124 105.56337949689488 C 0.0 **** -0.24
14977 H 59.532055199414 95.82492341488921 105.82864061576309 H 0.0 **** 0.06
14978 H 58.14877094029225 96.42387551931193 104.88151788418557 H 0.0 **** 0.06
14979 H 57.87818358348102 95.65794553767714 106.46580895740236 H 0.0 **** 0.06
14980 H 58.4011264952191 94.67262244956028 105.07848183461086 H 0.0 **** 0.06
14981 C 47.169601852290796 55.53681593613487 21.297873680139055 C 0.0 **** -0.24
14982 H 46.08652774670479 55.52174040100786 21.42327362338608 H 0.0 **** 0.06
14983 H 47.41430127907826 55.90768337068141 20.301927152173192 H 0.0 **** 0.06
14984 H 47.56358543029512 54.528213293262965 21.417537749703875 H 0.0 **** 0.06
14985 H 47.61295081321205 56.191789331677015 22.048269222485445 H 0.0 **** 0.06
14986 C 133.84912580559077 83.63508480436772 56.65863612183442 C 0.0 **** -0.24
14987 H 134.5194703899959 84.45841281617552 56.90800748542101 H 0.0 **** 0.06
14988 H 133.47605113391535 83.1807977118347 57.57586094116397 H 0.0 **** 0.06
14989 H 134.39198997482617 82.88880356728039 56.07777921522151 H 0.0 **** 0.06
14990 H 133.01147673850477 84.01424579189484 56.07252783913903 H 0.0 **** 0.06
14991 C 100.10178816173433 4.621978695295468 39.6795073081558 C 0.0 **** -0.24
14992 H 99.69966116254147 5.570853884919984 39.32440499850134 H 0.0 **** 0.06
14993 H 101.08510804129351 4.786559180169206 40.12016383925978 H 0.0 **** 0.06
14994 H 100.18925973706249 3.929024619028553 38.84297563085285 H 0.0 **** 0.06
14995 H 99.43182933147799 4.202429042534277 40.431131699369395 H 0.0 **** 0.06
14996 C 96.71446023944847 90.71280750022902 24.043412330900168 C 0.0 **** -0.24
14997 H 97.2134808973782 91.08941022062027 24.93557969978025 H 0.0 **** 0.06
14998 H 95.63713738127538 90.69032974185905 24.21201888368222 H 0.0 **** 0.06
14999 H 97.06953708548555 89.7053482968129 23.825838674562902 H 0.0 **** 0.06
15000 H 96.93725072173976 91.36578595395275 23.19938481396119 H 0.0 **** 0.06
15001 C 11.4735906086201 58.38361027435698 98.21432585758507 C 0.0 **** -0.24
15002 H 11.497999955625602 57.58165204707504 97.4756316457056 H 0.0 **** 0.06
15003 H 12.295266332218063 58.253635751984234 98.91813939428017 H 0.0 **** 0.06
15004 H 10.525128523653763 58.35236644575926 98.75179069434277 H 0.0 **** 0.06
15005 H 11.57388356043333 59.34475453275755 97.71101591887758 H 0.0 **** 0.06
15006 C 133.32306331521963 135.59473194070938 39.43950653914504 C 0.0 **** -0.24
15007 H 133.5651112275177 136.63156870753625 39.207015239003816 H 0.0 **** 0.06
15008 H 133.54878017001477 134.96644962524522 38.576456577367345 H 0.0 **** 0.06
15009 H 132.2625770577208 135.51409053056193 39.67902015975655 H 0.0 **** 0.06
15010 H 133.91503503561964 135.26523124449815 40.29331662639244 H 0.0 **** 0.06
15011 C 17.66870614128777 103.22279191678489 133.90055395791043 C 0.0 **** -0.24
15012 H 17.170802574463266 102.25528739904335 133.96662174889602 H 0.0 **** 0.06
15013 H 17.52700141154469 103.63606064765754 132.9021674585127 H 0.0 **** 0.06
15014 H 18.733260804845116 103.09675725462913 134.0942972605238 H 0.0 **** 0.06
15015 H 17.24234639163592 103.9013550825479 134.63942559288566 H 0.0 **** 0.06
15016 C 124.41956743957198 82.03249573108718 81.76840210708203 C 0.0 **** -0.24
15017 H 125.44075871745932 81.92692596998188 82.13315441850774 H 0.0 **** 0.06
15018 H 123.75742685620426 82.26321558705611 82.60354948171653 H 0.0 **** 0.06
15019 H 124.10248372108381 81.1004667626067 81.29985878760809 H 0.0 **** 0.06
15020 H 124.37623790313054 82.83955413788989 81.0367121474373 H 0.0 **** 0.06
15021 C 70.61605967951176 0.09988451075329863 60.09801191396889 C 0.0 **** -0.24
15022 H 70.6677035314146 1.1386458444106893 60.424318063995145 H 0.0 **** 0.06
15023 H 70.80313770723271 -0.5574115013574499 60.94733380390747 H 0.0 **** 0.06
15024 H 71.36879380512272 -0.07647906128298132 59.32989987407137 H 0.0 **** 0.06
15025 H 69.62640324085484 -0.10359571623138208 59.69085990143185 H 0.0 **** 0.06
15026 C 10.642746045952634 86.37957094695227 28.112577075378113 C 0.0 **** -0.24
15027 H 11.500415223548515 86.86905445053458 27.651110522230084 H 0.0 **** 0.06
15028 H 10.97049839730434 85.829275469551 28.995366542919726 H 0.0 **** 0.06
15029 H 10.192379587203988 85.68901553266203 27.400157865017007 H 0.0 **** 0.06
15030 H 9.90998723742041 87.13134169305182 28.404424867708002 H 0.0 **** 0.06
15031 C 119.52200721185082 73.21956541310925 32.31397781707122 C 0.0 **** -0.24
15032 H 120.56352387057066 72.91862862725532 32.42157402656068 H 0.0 **** 0.06
15033 H 119.32324363651409 73.47245611573538 31.27164950555789 H 0.0 **** 0.06
15034 H 119.32809046538503 74.08859515934165 32.94239445871577 H 0.0 **** 0.06
15035 H 118.87365742252118 72.39782556776464 32.61824591863396 H 0.0 **** 0.06
15036 C 50.475049578016154 104.31413359827981 0.8280190906332052 C 0.0 **** -0.24
15037 H 50.636181565009764 105.28613211883992 0.36334910845096147 H 0.0 **** 0.06
15038 H 50.241765914483864 104.45154516233939 1.8846068814810337 H 0.0 **** 0.06
15039 H 51.376472721613766 103.70948812070755 0.7301107483416729 H 0.0 **** 0.06
15040 H 49.64355460838979 103.81011202452767 0.3347196946409383 H 0.0 **** 0.06
15041 C 90.12577918554838 43.27825396099307 83.99314365811577 C 0.0 **** -0.24
15042 H 89.99665775680985 42.78599822977141 83.02915929373867 H 0.0 **** 0.06
15043 H 90.29859940396251 44.34271104601112 83.83654814561649 H 0.0 **** 0.06
15044 H 90.9812566535705 42.843192643960464 84.5109427485626 H 0.0 **** 0.06
15045 H 89.22736710765093 43.139124815603026 84.5952464367906 H 0.0 **** 0.06
15046 C 112.7322302316806 41.80344963278378 7.6698426482285065 C 0.0 **** -0.24
15047 H 112.93030505054355 42.561979926286426 6.912391615812105 H 0.0 **** 0.06
15048 H 113.45771903687944 41.899864970690686 8.478357351878106 H 0.0 **** 0.06
15049 H 112.81598803658022 40.81280306301382 7.223707163088243 H 0.0 **** 0.06
15050 H 111.72620581656747 41.93950430682554 8.066006596372471 H 0.0 **** 0.06
15051 C 90.89270055321265 66.46499090679228 125.37570046146845 C 0.0 **** -0.24
15052 H 91.34989132770994 67.08158555643925 124.6015980488541 H 0.0 **** 0.06
15053 H 91.53196879394781 66.45797351998272 126.25891040162094 H 0.0 **** 0.06
15054 H 90.77400446371763 65.44634742093191 125.00566856113636 H 0.0 **** 0.06
15055 H 89.91628164260896 66.87383913648088 125.63624248678997 H 0.0 **** 0.06
15056 C 23.885365536634886 100.14373425535476 69.02529752509616 C 0.0 **** -0.24
15057 H 24.11102392343026 99.11047991017213 68.7597910514073 H 0.0 **** 0.06
15058 H 24.80759280818691 100.725399485216 69.0371446616798 H 0.0 **** 0.06
15059 H 23.423691515475006 100.17229512682835 70.01263703185825 H 0.0 **** 0.06
15060 H 23.199138343117028 100.56576922242303 68.29061075392752 H 0.0 **** 0.06
15061 C 33.01869836172015 144.32525089287304 137.86210920755812 C 0.0 **** -0.24
15062 H 32.499633763089335 144.0747330208503 136.9371391434054 H 0.0 **** 0.06
15063 H 32.32681134119112 144.8184086751174 138.54516972151382 H 0.0 **** 0.06
15064 H 33.85091969454895 144.99351340046044 137.64203933564062 H 0.0 **** 0.06
15065 H 33.397737867034444 143.41351278412824 138.3245425547345 H 0.0 **** 0.06
15066 C 112.54573770957535 27.916061770443555 86.54895640488152 C 0.0 **** -0.24
15067 H 112.43614104652221 28.99312418456944 86.6767728258528 H 0.0 **** 0.06
15068 H 113.30183519383849 27.544368644604482 87.24008206953255 H 0.0 **** 0.06
15069 H 112.85290044448323 27.701841853227002 85.5247919534281 H 0.0 **** 0.06
15070 H 111.59286407295309 27.42746630642919 86.75281716170875 H 0.0 **** 0.06
15071 C 44.1983020356397 6.543003333307041 61.16714376818324 C 0.0 **** -0.24
15072 H 44.79540371138097 7.156326508858626 60.4927810026323 H 0.0 **** 0.06
15073 H 43.2001622374014 6.971378442542118 61.2607473201128 H 0.0 **** 0.06
15074 H 44.67420897927536 6.512684115744634 62.14824279667015 H 0.0 **** 0.06
15075 H 44.12452425543171 5.530426653368437 60.768641238153236 H 0.0 **** 0.06
15076 C 53.58768408150692 133.53222191943968 95.71772016635043 C 0.0 **** -0.24
15077 H 52.5694544326262 133.91896119240377 95.76996053734001 H 0.0 **** 0.06
15078 H 54.190820635804954 134.18206584034928 95.08430321348891 H 0.0 **** 0.06
15079 H 53.572427841007226 132.5265814856257 95.29768153004298 H 0.0 **** 0.06
15080 H 54.01540481922015 133.5005844841196 96.7202035703566 H 0.0 **** 0.06
15081 C 138.14492490533922 106.55375667721943 133.88022180864036 C 0.0 **** -0.24
15082 H 138.64113527046354 105.5830367092364 133.86124951891935 H 0.0 **** 0.06
15083 H 138.1395347045349 106.97749824000881 132.87592457458047 H 0.0 **** 0.06
15084 H 138.68013159377156 107.22240672361501 134.55386027154583 H 0.0 **** 0.06
15085 H 137.12025773184234 106.43035966259684 134.22876907019224 H 0.0 **** 0.06
15086 C 87.10671125093091 120.19771724508486 97.18151454399099 C 0.0 **** -0.24
15087 H 86.05737383908654 120.47529538247984 97.0836408792604 H 0.0 **** 0.06
15088 H 87.52402664535123 120.66382551763606 98.07516767594076 H 0.0 **** 0.06
15089 H 87.65569732249284 120.5369923728832 96.30342368729552 H 0.0 **** 0.06
15090 H 87.18933388875571 119.11421811340004 97.26506700420887 H 0.0 **** 0.06
15091 C 137.70811353510027 50.43914299599929 127.87581895625706 C 0.0 **** -0.24
15092 H 137.90626545867198 49.39292448864249 127.64056676480035 H 0.0 **** 0.06
15093 H 138.51213622381488 51.05870653521059 127.47912585731163 H 0.0 **** 0.06
15094 H 137.65303310208242 50.56282086155764 128.9579847869597 H 0.0 **** 0.06
15095 H 136.76187519145813 50.73977176827117 127.42725771799289 H 0.0 **** 0.06
15096 C 16.65666947614858 68.96690328302475 129.6406126854744 C 0.0 **** -0.24
15097 H 17.450088689407437 68.94556740441038 130.38734865359922 H 0.0 **** 0.06
15098 H 16.906260648523755 68.28599999565364 128.82658819175663 H 0.0 **** 0.06
15099 H 16.55289483731167 69.978745174609 129.2490686926095 H 0.0 **** 0.06
15100 H 15.717813320402627 68.65646027988839 130.09905805024704 H 0.0 **** 0.06
15101 C 8.75188785744325 128.37532855243384 106.39735410204949 C 0.0 **** -0.24
15102 H 7.68189127246967 128.2077541846877 106.51826735042394 H 0.0 **** 0.06
15103 H 9.08133329511486 129.14048276988865 107.10058922803958 H 0.0 **** 0.06
15104 H 8.956547220181733 128.70428114440702 105.3787518175624 H 0.0 **** 0.06
15105 H 9.288786017332313 127.44690603697265 106.59390925536351 H 0.0 **** 0.06
15106 C 9.86778963539156 72.9762423201901 100.28988568596195 C 0.0 **** -0.24
15107 H 9.91043417011042 72.83583760090832 101.36958000316926 H 0.0 **** 0.06
15108 H 9.786174858498022 72.00434217934784 99.80088043015816 H 0.0 **** 0.06
15109 H 10.774419427258223 73.47841590120953 99.9529064664987 H 0.0 **** 0.06
15110 H 8.999588923048503 73.58425017820005 100.0366213148391 H 0.0 **** 0.06
15111 C 133.91807613060783 11.326260074806953 122.76653183887731 C 0.0 **** -0.24
15112 H 134.6494575520809 11.173290665127354 121.97266630139245 H 0.0 **** 0.06
15113 H 133.84675856979305 12.389272416098663 122.99446914969542 H 0.0 **** 0.06
15114 H 134.23081579034948 10.782862260152285 123.6582905653404 H 0.0 **** 0.06
15115 H 132.94512732162698 10.957682848902152 122.43920263686402 H 0.0 **** 0.06
15116 C 13.988467147608986 98.84145725290169 121.7507824347615 C 0.0 **** -0.24
15117 H 13.501614559165205 99.30247594779337 122.61008285389977 H 0.0 **** 0.06
15118 H 14.961215535249863 98.4521468808087 122.0499142938275 H 0.0 **** 0.06
15119 H 14.120456858724452 99.58654565197325 120.96559205414349 H 0.0 **** 0.06
15120 H 13.369119724682974 98.02589901741909 121.37638763588387 H 0.0 **** 0.06
15121 C 11.837381678346844 17.745959046067213 108.49825698107689 C 0.0 **** -0.24
15122 H 12.407886473625801 17.920088070429166 109.41025875380986 H 0.0 **** 0.06
15123 H 10.989763734468148 18.43062690155851 108.46290642786012 H 0.0 **** 0.06
15124 H 11.474375619530115 16.717711365868666 108.48794909011578 H 0.0 **** 0.06
15125 H 12.477453265858237 17.91317424504343 107.63190754730986 H 0.0 **** 0.06
15126 C 136.80916861721488 71.26307785260306 115.89203126658872 C 0.0 **** -0.24
15127 H 136.3342941629388 70.64803873894797 116.65582312074442 H 0.0 **** 0.06
15128 H 137.30622419706043 72.11073878465587 116.36639789808778 H 0.0 **** 0.06
15129 H 136.05304493095358 71.62797401206585 115.19756627907874 H 0.0 **** 0.06
15130 H 137.54418821569354 70.66743878031644 115.35064214260423 H 0.0 **** 0.06
15131 C 88.98924691183171 59.76500436510355 119.96937025199385 C 0.0 **** -0.24
15132 H 89.95417773096605 59.31102765776393 119.74282096873061 H 0.0 **** 0.06
15133 H 88.54046324179765 59.25474924278552 120.82251788911243 H 0.0 **** 0.06
15134 H 88.33207220707007 59.67248452356915 119.1043179927472 H 0.0 **** 0.06
15135 H 89.13077473824646 60.81878827883787 120.20879502383623 H 0.0 **** 0.06
15136 C 88.11111397813588 25.01841129588236 60.19611630669198 C 0.0 **** -0.24
15137 H 87.04644136815746 24.78438192115577 60.20572850260183 H 0.0 **** 0.06
15138 H 88.35903194984773 25.542388319427317 59.27231237053023 H 0.0 **** 0.06
15139 H 88.68656745874941 24.094061699943126 60.255656685812966 H 0.0 **** 0.06
15140 H 88.35154207312696 25.652300370109586 61.049362372825954 H 0.0 **** 0.06
15141 C 81.38741131428635 84.96863186659442 122.22683801243781 C 0.0 **** -0.24
15142 H 82.23167094704597 85.59370435039267 122.51847644981908 H 0.0 **** 0.06
15143 H 81.60130048809582 83.9296164177494 122.4795814830263 H 0.0 **** 0.06
15144 H 81.22518316170712 85.0554643292478 121.15263736468935 H 0.0 **** 0.06
15145 H 80.49339480026636 85.2952621973156 122.75703604216883 H 0.0 **** 0.06
15146 C 77.7034972834461 7.469078498778572 127.29879190393515 C 0.0 **** -0.24
15147 H 77.9755421994455 6.898683120158722 126.40993498070944 H 0.0 **** 0.06
15148 H 78.53149154004478 8.121275333124032 127.57837327017937 H 0.0 **** 0.06
15149 H 77.48759323102604 6.783476414556276 128.11789329960254 H 0.0 **** 0.06
15150 H 76.82077684825634 8.071108549641679 127.08676058161814 H 0.0 **** 0.06
15151 C 114.27251818795183 66.68191321682613 92.9210463637013 C 0.0 **** -0.24
15152 H 113.29122893892072 66.28657645060112 93.18063465708558 H 0.0 **** 0.06
15153 H 114.83366178874182 66.88721582178806 93.83334327215003 H 0.0 **** 0.06
15154 H 114.15358212176461 67.6038720860715 92.35129906797437 H 0.0 **** 0.06
15155 H 114.81159990237977 65.94998850884376 92.31890845759482 H 0.0 **** 0.06
15156 C 83.31710095759908 2.655269247082341 117.49950135901712 C 0.0 **** -0.24
15157 H 83.97227202548586 1.800714080669085 117.33321487479652 H 0.0 **** 0.06
15158 H 83.80485514657269 3.5629901617153052 117.141908629827 H 0.0 **** 0.06
15159 H 83.1074641278519 2.7507361076236414 118.56438413568061 H 0.0 **** 0.06
15160 H 82.38283456427791 2.5069916008328406 116.95678965102816 H 0.0 **** 0.06
15161 C 39.47186807905558 104.6297163401571 37.783130210292285 C 0.0 **** -0.24
15162 H 39.448177639449625 105.34749512252787 38.60242578057421 H 0.0 **** 0.06
15163 H 40.02496770341037 105.05421134329546 36.94489353558701 H 0.0 **** 0.06
15164 H 38.45286672410856 104.40244617783341 37.46901011559697 H 0.0 **** 0.06
15165 H 39.96201933693999 103.71388681964586 38.116118209354056 H 0.0 **** 0.06
15166 C 107.0410985357763 16.074989729162667 98.60303387116306 C 0.0 **** -0.24
15167 H 106.89323894085659 16.520372560406372 97.61955354992085 H 0.0 **** 0.06
15168 H 107.68389885442407 15.199699209045093 98.51234137933756 H 0.0 **** 0.06
15169 H 106.0776278253655 15.777201109706994 99.01546687053587 H 0.0 **** 0.06
15170 H 107.50973235677345 16.804065514816898 99.26447983436947 H 0.0 **** 0.06
15171 C 57.78696058618196 60.4132757041032 33.241167670689165 C 0.0 **** -0.24
15172 H 58.40131595989371 60.87849419662891 32.4697565210178 H 0.0 **** 0.06
15173 H 57.28210419322875 61.18834109469458 33.81861948765857 H 0.0 **** 0.06
15174 H 58.42005325362359 59.82069019129591 33.90137519057467 H 0.0 **** 0.06
15175 H 57.04474310757445 59.76682962579736 32.77310510199588 H 0.0 **** 0.06
15176 C 25.386232226822585 131.78806578838942 119.5320822980438 C 0.0 **** -0.24
15177 H 26.389667376351156 132.0936062508199 119.23512466327611 H 0.0 **** 0.06
15178 H 25.036421245430745 132.42987937854764 120.3407957814702 H 0.0 **** 0.06
15179 H 25.407959069501942 130.75336868569053 119.87294548102182 H 0.0 **** 0.06
15180 H 24.713100672982705 131.87567240689236 118.67939426753964 H 0.0 **** 0.06
15181 C 19.805656477096505 7.439090986735948 105.82661302370495 C 0.0 **** -0.24
15182 H 19.40315724202894 8.123327171709406 105.07919203333812 H 0.0 **** 0.06
15183 H 19.093585045629737 7.336467725788708 106.64468733777146 H 0.0 **** 0.06
15184 H 20.746153086563226 7.833457260249901 106.20964984749254 H 0.0 **** 0.06
15185 H 19.979557574453864 6.464602154146206 105.37032493657419 H 0.0 **** 0.06
15186 C 91.72302967848704 86.36596357445056 135.2939794616507 C 0.0 **** -0.24
15187 H 92.57861025610318 87.01199049947051 135.09753868821124 H 0.0 **** 0.06
15188 H 90.95383734172037 86.54275524718052 134.5426561496147 H 0.0 **** 0.06
15189 H 91.32222855647898 86.5850688990792 136.28352744072384 H 0.0 **** 0.06
15190 H 92.038351735455 85.32320005648978 135.2528800868399 H 0.0 **** 0.06
15191 C 139.09433908616967 48.214641881843306 75.51305550200357 C 0.0 **** -0.24
15192 H 138.4805667467303 48.67016738415998 74.73618619965515 H 0.0 **** 0.06
15193 H 138.78607366451905 48.59276443804839 76.4882086667879 H 0.0 **** 0.06
15194 H 140.1420578233998 48.46326977887037 75.34078954162374 H 0.0 **** 0.06
15195 H 138.96960635217488 47.132111617521275 75.48684731709565 H 0.0 **** 0.06
15196 C 28.445163772274938 127.01573089864826 15.242211650904807 C 0.0 **** -0.24
15197 H 27.373220460412057 126.87154830351568 15.106322647641505 H 0.0 **** 0.06
15198 H 28.93669488859662 126.04510216292579 15.312346799500112 H 0.0 **** 0.06
15199 H 28.62085972610935 127.57969968647814 16.159354562892773 H 0.0 **** 0.06
15200 H 28.84867142902302 127.56799392584759 14.393741852273926 H 0.0 **** 0.06
15201 C 30.039979151242264 17.487652062262697 139.17214053267807 C 0.0 **** -0.24
15202 H 30.077271659516413 16.529541296983467 138.6531280524816 H 0.0 **** 0.06
15203 H 30.00173094950057 18.294656837470995 138.44096529318895 H 0.0 **** 0.06
15204 H 30.930084857104788 17.599047199472352 139.79093034366858 H 0.0 **** 0.06
15205 H 29.151818203060117 17.52486667465402 139.80264912424437 H 0.0 **** 0.06
15206 C 56.58406644671956 81.05537928968495 137.45302393318852 C 0.0 **** -0.24
15207 H 57.27792928334057 80.21617092491726 137.51971479415457 H 0.0 **** 0.06
15208 H 55.561062964559056 80.68647932875287 137.535477849869 H 0.0 **** 0.06
15209 H 56.71420330107995 81.55796535638001 136.49439232583273 H 0.0 **** 0.06
15210 H 56.78490417614739 81.75722157430259 138.2622022153244 H 0.0 **** 0.06
15211 C 128.74021338163715 30.14780988557024 139.99803019435166 C 0.0 **** -0.24
15212 H 128.39027026238304 30.71321653510722 140.86200996978886 H 0.0 **** 0.06
15213 H 129.8282802100605 30.199616154410165 139.94625535375903 H 0.0 **** 0.06
15214 H 128.3126259040344 30.571188895538555 139.08977526784128 H 0.0 **** 0.06
15215 H 128.43053874777343 29.107630458926266 140.095525046838 H 0.0 **** 0.06
15216 C 107.21074890461804 87.55351082666378 42.4600852926399 C 0.0 **** -0.24
15217 H 108.02189583319776 87.33432055171669 43.15427991350728 H 0.0 **** 0.06
15218 H 106.28289819507083 87.69039175031043 43.01783226440776 H 0.0 **** 0.06
15219 H 107.09513321121901 86.72349989037285 41.762523978249135 H 0.0 **** 0.06
15220 H 107.44071592802774 88.46394142227645 41.9079176260352 H 0.0 **** 0.06
15221 C 26.750153836687645 116.40518441109253 39.38252029749526 C 0.0 **** -0.24
15222 H 25.915355048003008 115.71026943407304 39.47382777190248 H 0.0 **** 0.06
15223 H 26.498353137181255 117.1836702143022 38.66273482003311 H 0.0 **** 0.06
15224 H 27.635171262823512 115.86744037646145 39.04330152074536 H 0.0 **** 0.06
15225 H 26.951182662216283 116.85933372566228 40.353487220864125 H 0.0 **** 0.06
15226 C 62.019122469391846 74.40526543077584 69.80826725620682 C 0.0 **** -0.24
15227 H 61.81074808952246 74.85895259006583 70.7776763624163 H 0.0 **** 0.06
15228 H 62.92779315479541 73.80695192338516 69.87439157696187 H 0.0 **** 0.06
15229 H 62.152806124054536 75.18947928996357 69.06202113611583 H 0.0 **** 0.06
15230 H 61.18313013884091 73.76844053121954 69.51954463267363 H 0.0 **** 0.06
15231 C 100.88030084171604 44.05528668397484 122.02992442429904 C 0.0 **** -0.24
15232 H 100.73061125869886 44.891253234768385 122.71385050978496 H 0.0 **** 0.06
15233 H 101.52145850931075 44.37152376783632 121.20596512233077 H 0.0 **** 0.06
15234 H 99.91732660710635 43.730187575862175 121.63733297300054 H 0.0 **** 0.06
15235 H 101.35393409476677 43.2308880538763 122.56294162407629 H 0.0 **** 0.06
15236 C 75.78746558614537 30.696984118815834 50.95489003114771 C 0.0 **** -0.24
15237 H 75.06573573127963 31.401003876647792 50.541120677642695 H 0.0 **** 0.06
15238 H 75.2615216491353 29.924748081748845 51.51636788455498 H 0.0 **** 0.06
15239 H 76.47255290880788 31.227087906674853 51.61699520301272 H 0.0 **** 0.06
15240 H 76.35152997851213 30.23717653849468 50.14233952672976 H 0.0 **** 0.06
15241 C 79.6292543841937 56.84426462032978 73.37457525590457 C 0.0 **** -0.24
15242 H 78.60872769456608 57.224466352513815 73.42280207430227 H 0.0 **** 0.06
15243 H 80.32222439035924 57.67723694820795 73.26205633667001 H 0.0 **** 0.06
15244 H 79.72653327245052 56.17315054207468 72.52142251935041 H 0.0 **** 0.06
15245 H 79.85777330771911 56.301252738269525 74.2920408550205 H 0.0 **** 0.06
15246 C 11.234109595371876 114.10844943142675 86.66399760400746 C 0.0 **** -0.24
15247 H 10.768073171079521 113.34890913490787 86.03606647869441 H 0.0 **** 0.06
15248 H 12.308896197626325 113.93077559369922 86.71194240636193 H 0.0 **** 0.06
15249 H 10.812842792959344 114.05862994567886 87.66831937446685 H 0.0 **** 0.06
15250 H 11.047593956888846 115.09523149862153 86.23964635013328 H 0.0 **** 0.06
15251 C 69.13285883179324 16.810729824607733 17.554384108827406 C 0.0 **** -0.24
15252 H 70.15321373472511 16.845262337427187 17.17203179505566 H 0.0 **** 0.06
15253 H 68.46330930262289 17.297641429154027 16.845502310062813 H 0.0 **** 0.06
15254 H 69.08688145243805 17.328069018570687 18.51249011482969 H 0.0 **** 0.06
15255 H 68.83039311558204 15.771734180811706 17.68689999093928 H 0.0 **** 0.06
15256 C 131.31930760008788 23.261035737277084 3.9386601092518276 C 0.0 **** -0.24
15257 H 131.75182125299432 22.630116400774426 3.162251956234172 H 0.0 **** 0.06
15258 H 130.32333762724875 23.582999786096607 3.6320383099701417 H 0.0 **** 0.06
15259 H 131.95319217547217 24.134725252188673 4.091551872412026 H 0.0 **** 0.06
15260 H 131.2483553036103 22.69662180257049 4.86800909791873 H 0.0 **** 0.06
15261 C 96.94536282415405 137.02738274685757 112.48150158325251 C 0.0 **** -0.24
15262 H 97.79843607676288 136.40938519477157 112.20070634623448 H 0.0 **** 0.06
15263 H 96.7870676810535 137.7936653647656 111.72163872676975 H 0.0 **** 0.06
15264 H 97.1427670802018 137.50309153032308 113.44284162089048 H 0.0 **** 0.06
15265 H 96.05539333533913 136.40354516765458 112.56053861491921 H 0.0 **** 0.06
15266 C 68.1026283951094 62.39428186738033 74.8143605932 C 0.0 **** -0.24
15267 H 68.97330193247333 62.786472150902824 75.33868035464687 H 0.0 **** 0.06
15268 H 67.2532347143136 62.35944916912891 75.49763141612661 H 0.0 **** 0.06
15269 H 68.31903185900785 61.389822280177185 74.45140694765533 H 0.0 **** 0.06
15270 H 67.86406526136093 63.042162616715785 73.97134218944925 H 0.0 **** 0.06
15271 C 3.476563912681229 38.218163961860114 96.36860910237311 C 0.0 **** -0.24
15272 H 3.856797589895507 38.06607089857255 95.35808944381779 H 0.0 **** 0.06
15273 H 2.939829506817915 37.325496925332004 96.69230912792143 H 0.0 **** 0.06
15274 H 2.799306291601141 39.072314930786234 96.37692432586346 H 0.0 **** 0.06
15275 H 4.3096463275894905 38.40690229268699 97.04568400801239 H 0.0 **** 0.06
15276 C 77.45016712578791 144.14509987627972 0.9071664861820068 C 0.0 **** -0.24
15277 H 78.0544464872898 144.9767511317227 1.2699729816305307 H 0.0 **** 0.06
15278 H 77.35890079107998 143.39351619911767 1.6930223544081855 H 0.0 **** 0.06
15279 H 77.92808633943554 143.70227076401724 0.03401332292770576 H 0.0 **** 0.06
15280 H 76.45961851621087 144.50743147025062 0.6340380925657314 H 0.0 **** 0.06
15281 C 42.94164015685752 21.84873655007783 60.106233792596356 C 0.0 **** -0.24
15282 H 43.097789995885165 22.024670211482203 61.170004642157494 H 0.0 **** 0.06
15283 H 42.492401757978556 20.865758912115325 59.96189822804587 H 0.0 **** 0.06
15284 H 43.898871077867085 21.891545741963853 59.58655577963356 H 0.0 **** 0.06
15285 H 42.27677556700658 22.615086357459518 59.70640383586709 H 0.0 **** 0.06
15286 C 103.23762555285471 18.331835400903287 55.66676314187848 C 0.0 **** -0.24
15287 H 103.16200653997531 17.5767407603862 54.884044313644864 H 0.0 **** 0.06
15288 H 102.74601843049355 17.970088591235196 56.56955633872832 H 0.0 **** 0.06
15289 H 102.75554158288024 19.251277068311538 55.33248926563229 H 0.0 **** 0.06
15290 H 104.28919215509536 18.530138121178197 55.87951583421122 H 0.0 **** 0.06
15291 C 103.43215943460933 120.92144498003705 144.78521294188675 C 0.0 **** -0.24
15292 H 102.99786848108585 121.91543118498913 144.68169166432352 H 0.0 **** 0.06
15293 H 103.9112853117864 120.83380974302094 145.7606361224747 H 0.0 **** 0.06
15294 H 104.17248850392673 120.76508274938112 144.00043868665506 H 0.0 **** 0.06
15295 H 102.64549843679714 120.17082553463894 144.69691852140681 H 0.0 **** 0.06
15296 C 60.63162621895876 22.104924491747 88.14876611726359 C 0.0 **** -0.24
15297 H 61.36417757539053 22.85832834625478 87.85844895030098 H 0.0 **** 0.06
15298 H 60.40714483166167 22.207792806895327 89.21047564308671 H 0.0 **** 0.06
15299 H 61.03732143310367 21.11174017153965 87.95664847762143 H 0.0 **** 0.06
15300 H 59.7202831488448 22.243424159245563 87.56822112461975 H 0.0 **** 0.06
15301 C 67.47727848466457 54.021506091873675 117.26973199330395 C 0.0 **** -0.24
15302 H 67.16925738721085 53.429417271176135 118.13129378000336 H 0.0 **** 0.06
15303 H 67.84730928526545 54.989978257660994 117.60952143384701 H 0.0 **** 0.06
15304 H 66.6253059163758 54.16934734648265 116.60725290925187 H 0.0 **** 0.06
15305 H 68.26898443069666 53.49849534147978 116.73340714659709 H 0.0 **** 0.06
15306 C 57.69843056397812 144.80173227280622 82.79312740811827 C 0.0 **** -0.24
15307 H 57.910644478946594 145.287959102692 83.74540133312144 H 0.0 **** 0.06
15308 H 58.142123025302055 143.80612990518 82.78689661416718 H 0.0 **** 0.06
15309 H 58.119783537816886 145.3932898952115 81.98108116890427 H 0.0 **** 0.06
15310 H 56.619430733856575 144.7192390727504 82.66049951409893 H 0.0 **** 0.06
15311 C 48.38256664921886 118.96828917911951 134.9705889450819 C 0.0 **** -0.24
15312 H 49.27923943881808 118.41258202383268 134.6960249863651 H 0.0 **** 0.06
15313 H 47.90637038738454 119.3572377452168 134.07006128392203 H 0.0 **** 0.06
15314 H 48.65384544665453 119.79611079680232 135.62522781540628 H 0.0 **** 0.06
15315 H 47.69041678594411 118.30633155572563 135.49083173427152 H 0.0 **** 0.06
15316 C 17.27009364783052 97.02923285790207 124.80891342952623 C 0.0 **** -0.24
15317 H 16.95200842284325 97.92432054968933 125.34402251772096 H 0.0 **** 0.06
15318 H 16.55623839655803 96.80757525746962 124.01502834783037 H 0.0 **** 0.06
15319 H 17.31582231515759 96.1892655500442 125.50262571916556 H 0.0 **** 0.06
15320 H 18.256039670128644 97.1954205109544 124.3753214734574 H 0.0 **** 0.06
15321 C 110.0289292029356 1.5216711504298246 96.97184188314438 C 0.0 **** -0.24
15322 H 110.83865728787232 0.8166496753971728 96.78181273738713 H 0.0 **** 0.06
15323 H 110.4398642874744 2.444720483431297 97.38067580851036 H 0.0 **** 0.06
15324 H 109.33037922170816 1.0869528308388112 97.68664520836343 H 0.0 **** 0.06
15325 H 109.50780906568228 1.73655239198672 96.03909447041505 H 0.0 **** 0.06
15326 C 81.96040680073915 73.05300870407666 9.434854330643589 C 0.0 **** -0.24
15327 H 82.33241284536533 72.50570731548305 8.568937144420886 H 0.0 **** 0.06
15328 H 82.6694295279398 72.9566202254275 10.257558385817418 H 0.0 **** 0.06
15329 H 80.99590105176807 72.64267482590243 9.73596347677335 H 0.0 **** 0.06
15330 H 81.8425669344469 74.10507098827412 9.176311125218689 H 0.0 **** 0.06
15331 C 33.641775527786415 133.18287439508762 118.3567957212765 C 0.0 **** -0.24
15332 H 33.34954075325692 133.7999118253365 119.20650128446657 H 0.0 **** 0.06
15333 H 34.72850110301072 133.16593237458676 118.27643794828232 H 0.0 **** 0.06
15334 H 33.21552623037208 133.59848159256268 117.44380498501543 H 0.0 **** 0.06
15335 H 33.27181114053574 132.16721364282176 118.5002653178854 H 0.0 **** 0.06
15336 C 75.20731772411922 108.39144730832335 3.248814264635172 C 0.0 **** -0.24
15337 H 76.28926554791772 108.3307098615032 3.132471005629725 H 0.0 **** 0.06
15338 H 74.90344033988998 107.81655580687409 4.124148620648327 H 0.0 **** 0.06
15339 H 74.72358885482515 107.98505668696971 2.360520425221779 H 0.0 **** 0.06
15340 H 74.91297615384414 109.43346687794649 3.3781170070407143 H 0.0 **** 0.06
15341 C 10.92341221390106 88.23766020217812 31.139416199854253 C 0.0 **** -0.24
15342 H 12.007409718838858 88.34041597303533 31.197352328381925 H 0.0 **** 0.06
15343 H 10.558194384117058 88.7383395644504 30.242587330482905 H 0.0 **** 0.06
15344 H 10.467809034206226 88.69102504990929 32.01979166355474 H 0.0 **** 0.06
15345 H 10.660588702807729 87.1804533690017 31.097090911324784 H 0.0 **** 0.06
15346 C 117.81828700831586 116.92114075513854 38.596718209833995 C 0.0 **** -0.24
15347 H 117.48080627958215 116.63657901685974 37.60017555379579 H 0.0 **** 0.06
15348 H 118.28079046070992 117.90728028766216 38.55587371197018 H 0.0 **** 0.06
15349 H 118.54571978542212 116.1925694049491 38.955285160665824 H 0.0 **** 0.06
15350 H 116.96558814115095 116.94593564625592 39.27586531378087 H 0.0 **** 0.06
15351 C 80.94532812018083 118.94967266361164 104.30128934806112 C 0.0 **** -0.24
15352 H 80.02762270126293 119.08645039077197 104.87328717373782 H 0.0 **** 0.06
15353 H 81.55262410582115 119.85307139156663 104.36768418896662 H 0.0 **** 0.06
15354 H 80.69757100372678 118.7534109266125 103.25865058510641 H 0.0 **** 0.06
15355 H 81.50329322122727 118.10595950873 104.7077533283574 H 0.0 **** 0.06
15356 C 108.50069485522079 68.05480247850957 35.353763609628906 C 0.0 **** -0.24
15357 H 108.96368997420296 67.07304673102774 35.45877845651979 H 0.0 **** 0.06
15358 H 107.48606359888237 67.93776574641996 34.972784971271096 H 0.0 **** 0.06
15359 H 109.08344782103154 68.65843045192403 34.657854022277355 H 0.0 **** 0.06
15360 H 108.46985699462499 68.54682383249371 36.32542912268834 H 0.0 **** 0.06
15361 C 122.7272360526167 68.93308037614355 47.38698512595465 C 0.0 **** -0.24
15362 H 122.44515690691482 68.89346080496112 48.43951331026152 H 0.0 **** 0.06
15363 H 122.94553267757976 67.92502416317171 47.03221164750951 H 0.0 **** 0.06
15364 H 123.6125592466017 69.5587610318341 47.272013508906156 H 0.0 **** 0.06
15365 H 121.90661957839517 69.3540356333718 46.80686002832192 H 0.0 **** 0.06
15366 C 81.7284084154191 80.14144104366127 87.28774844115965 C 0.0 **** -0.24
15367 H 81.31502385092159 80.67204422601895 88.145198347122 H 0.0 **** 0.06
15368 H 81.88749933488738 79.0948909887833 87.55043460940288 H 0.0 **** 0.06
15369 H 82.678321289551 80.59448743567302 87.00384634832456 H 0.0 **** 0.06
15370 H 81.03160296714064 80.20511052704549 86.45147438476094 H 0.0 **** 0.06
15371 C 54.83946190700854 84.81571209452238 28.621369293131266 C 0.0 **** -0.24
15372 H 54.15405512171594 84.31923100986873 27.935146350278757 H 0.0 **** 0.06
15373 H 55.11049248504811 84.1302128721986 29.42390658767968 H 0.0 **** 0.06
15374 H 54.35557006333619 85.69728706681865 29.043341098278518 H 0.0 **** 0.06
15375 H 55.73714119679019 85.11806198869488 28.082149183875032 H 0.0 **** 0.06
15376 C 26.488652343647786 57.1571452405187 92.86184861140308 C 0.0 **** -0.24
15377 H 27.4437250627074 57.662696633393125 92.71584234819375 H 0.0 **** 0.06
15378 H 26.48155390993022 56.667803184026724 93.83656186390508 H 0.0 **** 0.06
15379 H 26.350161489069862 56.41157586370744 92.07965462611072 H 0.0 **** 0.06
15380 H 25.680694487221047 57.887980314259096 92.8165591930194 H 0.0 **** 0.06
15381 C 85.27116181641622 9.601978440444043 64.77474747788388 C 0.0 **** -0.24
15382 H 84.34682482626923 10.07385499064938 65.10588262539247 H 0.0 **** 0.06
15383 H 86.12144138940266 10.098925282794823 65.24274365006073 H 0.0 **** 0.06
15384 H 85.35397834450322 9.685083411225065 63.69047954988069 H 0.0 **** 0.06
15385 H 85.2643903672957 8.549536571416894 65.05899767159131 H 0.0 **** 0.06
15386 C 115.59916872387042 51.3576672072401 24.515111150515267 C 0.0 **** -0.24
15387 H 115.95079621327919 51.579215883106954 23.507186940722136 H 0.0 **** 0.06
15388 H 115.07182772027359 50.4029169484824 24.513939473643944 H 0.0 **** 0.06
15389 H 114.9223961130477 52.14587777577303 24.845409261396718 H 0.0 **** 0.06
15390 H 116.45094480774056 51.301513902665604 25.192123822892405 H 0.0 **** 0.06
15391 C 94.94941746822869 12.173337502564266 87.31463049197447 C 0.0 **** -0.24
15392 H 93.910811022447 12.48211703247054 87.43471281824571 H 0.0 **** 0.06
15393 H 95.53118399843342 12.518648747148177 88.16857937423401 H 0.0 **** 0.06
15394 H 95.3534298437398 12.60530141676199 86.39881659573865 H 0.0 **** 0.06
15395 H 94.9996251091878 11.086341475621879 87.25529496498649 H 0.0 **** 0.06
15396 C 118.41630907370336 133.27741312558823 24.285191341124992 C 0.0 **** -0.24
15397 H 118.00533632528453 133.58451491115164 25.247765422505836 H 0.0 **** 0.06
15398 H 118.17628996776881 132.22910440679416 24.106214871334203 H 0.0 **** 0.06
15399 H 119.4980138367568 133.4069813298203 24.293360287512087 H 0.0 **** 0.06
15400 H 117.98261029050121 133.8893201724507 23.49353859053327 H 0.0 **** 0.06
15401 C 44.37097051148902 36.24112447227458 43.73246208951116 C 0.0 **** -0.24
15402 H 43.8447990753059 37.18108262960351 43.56764657398509 H 0.0 **** 0.06
15403 H 43.71918664870259 35.54826038383078 44.2648276181049 H 0.0 **** 0.06
15404 H 45.26758132901031 36.425362759401196 44.32500088926406 H 0.0 **** 0.06
15405 H 44.65323100392854 35.80989516966508 42.772761023439614 H 0.0 **** 0.06
15406 C 80.07807053712779 107.12234513999341 106.23680533540093 C 0.0 **** -0.24
15407 H 79.4840488898399 107.43407910708628 107.09586185801643 H 0.0 **** 0.06
15408 H 80.9467881741397 106.56131436510579 106.58086204588423 H 0.0 **** 0.06
15409 H 80.40783662815355 108.00277685221839 105.68562097005807 H 0.0 **** 0.06
15410 H 79.47182925962741 106.4914717087973 105.5862054932584 H 0.0 **** 0.06
15411 C 104.01134015518312 1.725089551932797 62.505488945911026 C 0.0 **** -0.24
15412 H 104.17903613359545 2.1297316489277875 63.5039436307633 H 0.0 **** 0.06
15413 H 103.45380433605146 0.7920866248768164 62.580603498521526 H 0.0 **** 0.06
15414 H 104.97190516256069 1.5376383835209424 62.02487074640226 H 0.0 **** 0.06
15415 H 103.44252082316964 2.4425943310877756 61.914119894368326 H 0.0 **** 0.06
15416 C 57.386277493422654 58.36919415599655 124.36096789997882 C 0.0 **** -0.24
15417 H 57.710797023627094 58.630535583258535 123.35378488474696 H 0.0 **** 0.06
15418 H 57.10357986484178 57.31700181647736 124.38969448932947 H 0.0 **** 0.06
15419 H 56.52963820359042 58.98454726138763 124.63794376071522 H 0.0 **** 0.06
15420 H 58.202508449192635 58.546622638160756 125.06192445965218 H 0.0 **** 0.06
15421 C 49.12717374635065 132.80620034500683 10.108364876630617 C 0.0 **** -0.24
15422 H 50.013744208504846 133.22502811208952 9.631279921647035 H 0.0 **** 0.06
15423 H 48.76241900849362 133.4989336038811 10.867706414954 H 0.0 **** 0.06
15424 H 49.38158108121797 131.85604175523494 10.576261645775958 H 0.0 **** 0.06
15425 H 48.35240445642381 132.64644642062004 9.358622841863792 H 0.0 **** 0.06
15426 C 87.56307245264298 44.475275826915436 132.56117782233545 C 0.0 **** -0.24
15427 H 86.68083484762025 44.068078294487776 132.06789408330732 H 0.0 **** 0.06
15428 H 87.53642304965896 45.564475097541504 132.51304560334617 H 0.0 **** 0.06
15429 H 88.45982414838804 44.11052555422265 132.06077947157618 H 0.0 **** 0.06
15430 H 87.5749800915521 44.1581395620334 133.60395905269277 H 0.0 **** 0.06
15431 C 144.64578792007012 133.88670994515172 0.8789651145054904 C 0.0 **** -0.24
15432 H 144.29996242369086 133.52651330404098 1.8485960051925368 H 0.0 **** 0.06
15433 H 144.19169183223337 133.29048571676924 0.08729452443134988 H 0.0 **** 0.06
15434 H 145.73050602899627 133.7992911260039 0.8250630781325263 H 0.0 **** 0.06
15435 H 144.3592378212567 134.93144858925072 0.7569359403089102 H 0.0 **** 0.06
15436 C 23.490389589279772 68.08587391210754 61.4119855368952 C 0.0 **** -0.24
15437 H 22.712983415774374 67.64166756080927 60.78926704953662 H 0.0 **** 0.06
15438 H 23.085148609327888 68.95069129524705 61.93684029447104 H 0.0 **** 0.06
15439 H 24.32333480204582 68.39973991511101 60.78218926962626 H 0.0 **** 0.06
15440 H 23.83928683589258 67.34989733242658 62.136466791964764 H 0.0 **** 0.06
15441 C 70.63270498209289 129.94970804515503 37.290288747348484 C 0.0 **** -0.24
15442 H 70.91385936350896 130.14159912103963 36.25439881027567 H 0.0 **** 0.06
15443 H 69.95317660676386 130.73023511837613 37.63301252286434 H 0.0 **** 0.06
15444 H 71.5275199011581 129.94675283496926 37.9128145940626 H 0.0 **** 0.06
15445 H 70.13925997982196 128.9805563921474 37.35894711490741 H 0.0 **** 0.06
15446 C 111.19247329394311 4.356672489433237 89.62838219384722 C 0.0 **** -0.24
15447 H 111.80505357040649 4.314045655214471 90.52779653844182 H 0.0 **** 0.06
15448 H 110.28810308999816 3.7663524922260763 89.77552745444692 H 0.0 **** 0.06
15449 H 111.75583128394571 3.9548651818282963 88.78548029468679 H 0.0 **** 0.06
15450 H 110.92113660143379 5.392326665174238 89.42245806686162 H 0.0 **** 0.06
15451 C 12.447750162067734 43.92087033734039 140.36112077306652 C 0.0 **** -0.24
15452 H 12.565598336004825 44.774685678078555 139.69413872456596 H 0.0 **** 0.06
15453 H 13.233936863110841 43.19288370283061 140.16028292787257 H 0.0 **** 0.06
15454 H 11.47446866844524 43.459393187083194 140.19350549793742 H 0.0 **** 0.06
15455 H 12.518188335429102 44.25603870063594 141.39596449687576 H 0.0 **** 0.06
15456 C 116.03313466456746 100.63753583023663 61.000668810883326 C 0.0 **** -0.24
15457 H 115.55661917999231 100.19645896114172 60.125603069166644 H 0.0 **** 0.06
15458 H 116.34878317824553 101.65519936721932 60.76725092380988 H 0.0 **** 0.06
15459 H 116.90314965892014 100.04164097485157 61.27890285873508 H 0.0 **** 0.06
15460 H 115.32542674146401 100.6567184812067 61.829212352559225 H 0.0 **** 0.06
15461 C 86.8296108800753 86.72760447978708 48.428422809321276 C 0.0 **** -0.24
15462 H 86.57153920009826 86.83011950756051 47.37447472454808 H 0.0 **** 0.06
15463 H 87.76973108897506 87.24273966059911 48.62379579195573 H 0.0 **** 0.06
15464 H 86.93457849125036 85.67130803808088 48.675508851931895 H 0.0 **** 0.06
15465 H 86.04068180327235 87.16677557283406 49.040167544323126 H 0.0 **** 0.06
15466 C 114.11738115542873 17.157493834156227 133.62324282646705 C 0.0 **** -0.24
15467 H 114.17905238548416 16.51379129099749 132.74642326565322 H 0.0 **** 0.06
15468 H 115.08562813125322 17.62511063677409 133.80040149020596 H 0.0 **** 0.06
15469 H 113.8366396332115 16.561510667009635 134.49213936662852 H 0.0 **** 0.06
15470 H 113.3659820146979 17.92940651759475 133.4541982251908 H 0.0 **** 0.06
15471 C 111.27385925066616 61.453342373993564 59.02537930982322 C 0.0 **** -0.24
15472 H 110.88003723703318 61.16574647899745 58.05079493779803 H 0.0 **** 0.06
15473 H 110.48325677079387 61.91977520216665 59.613095251866156 H 0.0 **** 0.06
15474 H 112.09334890933351 62.15953849312865 58.89132841146855 H 0.0 **** 0.06
15475 H 111.6393777192479 60.56704326249866 59.545270729193106 H 0.0 **** 0.06
15476 C 6.116844388985129 64.03980999206911 86.0306105013714 C 0.0 **** -0.24
15477 H 6.80036427514915 64.18596676735854 86.86720638591491 H 0.0 **** 0.06
15478 H 6.18340577667945 63.00867257180113 85.68314811228362 H 0.0 **** 0.06
15479 H 6.386202604793084 64.71548449615433 85.219702399545 H 0.0 **** 0.06
15480 H 5.097163397846742 64.24905539042153 86.35409920179679 H 0.0 **** 0.06
15481 C 44.651222360287335 31.759287894385892 107.91352981788053 C 0.0 **** -0.24
15482 H 45.652357045350584 31.907054813754606 108.31791225534884 H 0.0 **** 0.06
15483 H 44.00771027304259 31.331318004306446 108.68279108926488 H 0.0 **** 0.06
15484 H 44.69972144111955 31.07977631047025 107.06200894919844 H 0.0 **** 0.06
15485 H 44.24462391475595 32.71746489239603 107.59076764677859 H 0.0 **** 0.06
15486 C 90.41160629664066 48.24945989417661 68.21195717406258 C 0.0 **** -0.24
15487 H 90.23590897581282 49.31897068258682 68.32845193668558 H 0.0 **** 0.06
15488 H 91.42210276127014 48.009821828462194 68.54207285500047 H 0.0 **** 0.06
15489 H 90.2954504433723 47.97456841379103 67.16331642790269 H 0.0 **** 0.06
15490 H 89.69102124397553 47.695971880718375 68.81397801564447 H 0.0 **** 0.06
15491 C 18.108153749380406 92.41465670543822 61.67861961347353 C 0.0 **** -0.24
15492 H 17.148349204623457 92.60309790130592 62.15916724764095 H 0.0 **** 0.06
15493 H 18.676439965057092 91.69803558539911 62.271631288093545 H 0.0 **** 0.06
15494 H 18.667052978949833 93.34754513323625 61.60332858939837 H 0.0 **** 0.06
15495 H 17.94134275472792 92.00912658685468 60.68036546671088 H 0.0 **** 0.06
15496 C 84.74176092148912 45.62121743017087 25.762018510160672 C 0.0 **** -0.24
15497 H 85.53720699415027 45.97886223953334 25.109440114579 H 0.0 **** 0.06
15498 H 84.0180127057541 45.05383358347039 25.175795819094617 H 0.0 **** 0.06
15499 H 84.24468958713824 46.47208818262557 26.228487128290425 H 0.0 **** 0.06
15500 H 85.16590632628188 44.980607553102715 26.534819604356628 H 0.0 **** 0.06
15501 C 16.840139681422585 77.66349881790006 78.48692440537388 C 0.0 **** -0.24
15502 H 16.33256717821223 77.66882234519483 79.45168278144786 H 0.0 **** 0.06
15503 H 17.903410982141224 77.85285705887208 78.6354454804067 H 0.0 **** 0.06
15504 H 16.416518667584768 78.43959808540615 77.8498019345011 H 0.0 **** 0.06
15505 H 16.706913024001977 76.69049647180088 78.01242461030733 H 0.0 **** 0.06
15506 C 8.89306021846113 133.17799893263796 54.05952664272124 C 0.0 **** -0.24
15507 H 8.300425569575935 133.02682677269448 54.96225865520685 H 0.0 **** 0.06
15508 H 8.665975363143275 134.15551267349588 53.63513624194533 H 0.0 **** 0.06
15509 H 8.6532516203809 132.40089314101914 53.33416308050934 H 0.0 **** 0.06
15510 H 9.9534318456152 133.12646191115476 54.30986424380896 H 0.0 **** 0.06
15511 C 57.48908235295755 75.81639276069406 97.25299730560269 C 0.0 **** -0.24
15512 H 57.908605981785854 75.87164749815844 98.25743731313793 H 0.0 **** 0.06
15513 H 57.025214443371 74.84067652908539 97.1057990465207 H 0.0 **** 0.06
15514 H 58.28307442261644 75.95569582866172 96.51883507797734 H 0.0 **** 0.06
15515 H 56.73903888935217 76.59767066042076 97.12900717438572 H 0.0 **** 0.06
15516 C 95.72035405062886 2.6979561625869906 95.0810432904766 C 0.0 **** -0.24
15517 H 96.76899237295606 2.6569441565180227 95.37777825026191 H 0.0 **** 0.06
15518 H 95.11995773237221 3.0526656518212576 95.91965249586511 H 0.0 **** 0.06
15519 H 95.38724860310028 1.7017706510125095 94.79042142132536 H 0.0 **** 0.06
15520 H 95.60807550962245 3.379421475443934 94.23850878138268 H 0.0 **** 0.06
15521 C 8.444453419403175 22.136096963770896 59.02535465497931 C 0.0 **** -0.24
15522 H 9.256627141482532 21.44755400513516 58.79080111472979 H 0.0 **** 0.06
15523 H 8.857471924983063 23.06005180762891 59.42837325971732 H 0.0 **** 0.06
15524 H 7.784582072300466 21.67998974340326 59.763149946557405 H 0.0 **** 0.06
15525 H 7.88079851042205 22.3539275299929 58.118959694956175 H 0.0 **** 0.06
15526 C 103.67818700936841 83.85021670224435 113.40784059082495 C 0.0 **** -0.24
15527 H 103.15697783631015 84.63830452619074 113.95165535010233 H 0.0 **** 0.06
15528 H 103.60651985994919 82.91659666464648 113.96555945346358 H 0.0 **** 0.06
15529 H 104.72697196409362 84.12349060406278 113.2893061446282 H 0.0 **** 0.06
15530 H 103.22143898987845 83.72423089759693 112.4259425602068 H 0.0 **** 0.06
15531 C 8.59629049014029 13.455981426137122 44.85891148561794 C 0.0 **** -0.24
15532 H 9.441645495705359 13.68733824459725 44.20992621051957 H 0.0 **** 0.06
15533 H 8.881442027323942 12.670379585816931 45.560268274541926 H 0.0 **** 0.06
15534 H 7.755902779411031 13.115159335115472 44.25381586177994 H 0.0 **** 0.06
15535 H 8.307856494329258 14.349298564030008 45.41195051876309 H 0.0 **** 0.06
15536 C 67.51156116943696 10.89459479982105 87.78368766186361 C 0.0 **** -0.24
15537 H 67.76773929968385 10.893013256162305 88.84333391284463 H 0.0 **** 0.06
15538 H 67.75181254395181 11.86730084841031 87.35437644589712 H 0.0 **** 0.06
15539 H 66.44551022813636 10.699394683378841 87.66723079122119 H 0.0 **** 0.06
15540 H 68.08093308138979 10.12037967421469 87.27122948914328 H 0.0 **** 0.06
15541 C 83.83222238507744 49.02038861599527 23.919657630211688 C 0.0 **** -0.24
15542 H 83.21961717024121 48.88204757556173 24.810808304488987 H 0.0 **** 0.06
15543 H 83.26917932313575 49.584613971843225 23.175275191871627 H 0.0 **** 0.06
15544 H 84.10355493423435 48.04762634751742 23.51082384185598 H 0.0 **** 0.06
15545 H 84.73794611761096 49.56858227912733 24.183235363596012 H 0.0 **** 0.06
15546 C 54.50861826184138 111.501206529702 145.53429817203613 C 0.0 **** -0.24
15547 H 55.32445399679301 112.15643068614325 145.83978836898217 H 0.0 **** 0.06
15548 H 53.587493934904245 112.08002354072302 145.4577097025977 H 0.0 **** 0.06
15549 H 54.38099113103283 110.71077723276169 146.27482554980116 H 0.0 **** 0.06
15550 H 54.74089831676798 111.0578726144848 144.56610144437383 H 0.0 **** 0.06
15551 C 61.8264944303487 108.23018928485166 17.60799611395855 C 0.0 **** -0.24
15552 H 62.69320863645464 107.59204341948603 17.77734543405375 H 0.0 **** 0.06
15553 H 62.04239075413233 108.92873336142796 16.798275211727166 H 0.0 **** 0.06
15554 H 61.60165922168267 108.78635030455465 18.517769119454726 H 0.0 **** 0.06
15555 H 60.96936701178515 107.61412146890453 17.337437616340836 H 0.0 **** 0.06
15556 C 97.82619170178654 37.45975576908589 78.09366227094957 C 0.0 **** -0.24
15557 H 98.86213904548649 37.37334227791638 77.76781621762781 H 0.0 **** 0.06
15558 H 97.48228955112576 38.48358887838454 77.94522039503784 H 0.0 **** 0.06
15559 H 97.7539378912843 37.20116013802255 79.15061337317212 H 0.0 **** 0.06
15560 H 97.20420848025034 36.78027399119308 77.51012536166118 H 0.0 **** 0.06
15561 C 127.74185659020688 15.941627919144594 50.72460140019598 C 0.0 **** -0.24
15562 H 127.44156517278921 16.57386817310237 51.56022465575522 H 0.0 **** 0.06
15563 H 128.49542655720458 16.458455604578546 50.12988603180098 H 0.0 **** 0.06
15564 H 126.873037475894 15.72662061505281 50.10194649452974 H 0.0 **** 0.06
15565 H 128.15686192770934 15.008748063132543 51.105783282033954 H 0.0 **** 0.06
15566 C 74.99512805116296 55.36375199432656 62.87178587182734 C 0.0 **** -0.24
15567 H 74.59209847347984 54.44780209081621 62.43977102578094 H 0.0 **** 0.06
15568 H 75.42229746668045 55.980402326237765 62.08076338787551 H 0.0 **** 0.06
15569 H 75.77037176615698 55.11201099340889 63.59556246219894 H 0.0 **** 0.06
15570 H 74.19684527637509 55.913254450708635 63.37039648747391 H 0.0 **** 0.06
15571 C 60.22598324935042 143.54239032797855 63.425822153990694 C 0.0 **** -0.24
15572 H 59.57020925878791 144.25304045578298 63.92901771523066 H 0.0 **** 0.06
15573 H 61.04449079209937 144.07950218859722 62.94639629278514 H 0.0 **** 0.06
15574 H 59.658976997663274 142.9949927172167 62.6733611056234 H 0.0 **** 0.06
15575 H 60.630084885120795 142.84134510862197 64.1574302787847 H 0.0 **** 0.06
15576 C 89.80960895277732 12.722334047675872 118.00099482709673 C 0.0 **** -0.24
15577 H 89.15666841679695 13.140608622898412 118.76604375777613 H 0.0 **** 0.06
15578 H 89.73568474660036 11.634743666100576 118.01525274953052 H 0.0 **** 0.06
15579 H 90.83935950602941 13.019696518715591 118.1987604647462 H 0.0 **** 0.06
15580 H 89.50624553667467 13.09374658096624 117.0223476752039 H 0.0 **** 0.06
15581 C 106.2933451983114 22.061868815530886 68.24074296015537 C 0.0 **** -0.24
15582 H 105.25469246015949 21.783398017634795 68.41924059386305 H 0.0 **** 0.06
15583 H 106.37394159104873 23.14654910008238 68.18068686919575 H 0.0 **** 0.06
15584 H 106.63103518483562 21.61907471096754 67.30428329483868 H 0.0 **** 0.06
15585 H 106.91301818325279 21.694904414164284 69.05972249122526 H 0.0 **** 0.06
15586 C 127.4222713732309 109.39729446064939 28.75961361583029 C 0.0 **** -0.24
15587 H 128.27003939564105 109.88152737113938 29.2437259387209 H 0.0 **** 0.06
15588 H 126.51651517244727 109.96942468232868 28.955984518439664 H 0.0 **** 0.06
15589 H 127.30808578951383 108.38755085097227 29.15320142902135 H 0.0 **** 0.06
15590 H 127.59769376024235 109.35065484440867 27.684339848346553 H 0.0 **** 0.06
15591 C 50.02029190325878 33.91744171640255 53.968784034914165 C 0.0 **** -0.24
15592 H 49.287328804599895 34.44438187272243 53.35851112013134 H 0.0 **** 0.06
15593 H 50.72984338498105 33.40189316316921 53.32114269415186 H 0.0 **** 0.06
15594 H 49.510901572235724 33.1903674506268 54.60102242959559 H 0.0 **** 0.06
15595 H 50.55386920452705 34.63365547639368 54.59480166556108 H 0.0 **** 0.06
15596 C 5.751289134143022 15.045488658202999 136.50329855892662 C 0.0 **** -0.24
15597 H 6.759820228175677 14.679550031295378 136.696856994486 H 0.0 **** 0.06
15598 H 5.7447955511858595 16.134929245138835 136.55165130392427 H 0.0 **** 0.06
15599 H 5.068562518941789 14.644191459946626 137.25183499492348 H 0.0 **** 0.06
15600 H 5.433190640011343 14.723592962280293 135.51074504056865 H 0.0 **** 0.06
15601 C 39.10891672022805 21.86088408964082 104.37031459875749 C 0.0 **** -0.24
15602 H 38.05238301622879 22.008872370134952 104.59561869003727 H 0.0 **** 0.06
15603 H 39.320214158162486 20.792475397082683 104.30907545220339 H 0.0 **** 0.06
15604 H 39.71413168292705 22.307222475914102 105.1594652797159 H 0.0 **** 0.06
15605 H 39.34762288616588 22.333379606360552 103.41842323309538 H 0.0 **** 0.06
15606 C 98.80843770726673 51.369119023666514 67.5395723099632 C 0.0 **** -0.24
15607 H 98.27453913138942 51.750852249610844 68.41070778662049 H 0.0 **** 0.06
15608 H 98.66043302976345 50.29144338608654 67.46678664353884 H 0.0 **** 0.06
15609 H 99.87196790015746 51.584242508568195 67.64399605816556 H 0.0 **** 0.06
15610 H 98.42597922157931 51.85110473092908 66.63979001123823 H 0.0 **** 0.06
15611 C 51.18422313076091 72.25819587966376 94.3454635068889 C 0.0 **** -0.24
15612 H 51.8246698725266 73.13571841353928 94.24830313494789 H 0.0 **** 0.06
15613 H 51.7145152894541 71.4814444990129 94.8974820453601 H 0.0 **** 0.06
15614 H 50.92416410491623 71.88770426843857 93.35461281007497 H 0.0 **** 0.06
15615 H 50.275353521149455 72.53028472492181 94.88251155564166 H 0.0 **** 0.06
15616 C 79.77481502701124 63.11703626933594 14.088233262693223 C 0.0 **** -0.24
15617 H 79.59810252748662 62.554464044693134 15.005335825723506 H 0.0 **** 0.06
15618 H 80.81947929246375 63.42798410165928 14.049542489579267 H 0.0 **** 0.06
15619 H 79.13267979525554 63.997050674906944 14.071928672586495 H 0.0 **** 0.06
15620 H 79.55176567057161 62.48795887815854 13.227493789392184 H 0.0 **** 0.06
15621 C 50.957424757848685 40.206303614992166 17.162547178897064 C 0.0 **** -0.24
15622 H 51.43615254025286 40.968741341352306 17.77843791183647 H 0.0 **** 0.06
15623 H 51.6349879781111 39.36088464312294 17.04008178603194 H 0.0 **** 0.06
15624 H 50.71991848200497 40.62639318154321 16.18518623116279 H 0.0 **** 0.06
15625 H 50.04101393206378 39.871465180492905 17.64694396921918 H 0.0 **** 0.06
15626 C 54.63501925061442 1.674854267216432 72.43409281790491 C 0.0 **** -0.24
15627 H 54.49046125328212 0.6604391043905764 72.06021338551845 H 0.0 **** 0.06
15628 H 54.93376569143112 1.6361787951198608 73.48192281087988 H 0.0 **** 0.06
15629 H 53.70242868288513 2.231718594500677 72.34286314999397 H 0.0 **** 0.06
15630 H 55.41241396816535 2.1691109111503692 71.8516971559998 H 0.0 **** 0.06
15631 C 128.38932937882134 1.6862188778249347 41.43529359297891 C 0.0 **** -0.24
15632 H 127.39068451548542 1.5999482864686065 41.006958767284004 H 0.0 **** 0.06
15633 H 129.0084457316218 0.8610499792009385 41.08357052179227 H 0.0 **** 0.06
15634 H 128.3221203929744 1.6521698997318097 42.523172980523384 H 0.0 **** 0.06
15635 H 128.83407683380162 2.6330696918404115 41.12790106716972 H 0.0 **** 0.06
15636 C 114.13085979676782 132.31747922876534 24.624740791592984 C 0.0 **** -0.24
15637 H 113.68964306014641 131.6789436408546 25.388823188052136 H 0.0 **** 0.06
15638 H 113.49569611033377 132.31584768380785 23.738538017958334 H 0.0 **** 0.06
15639 H 115.11963039502717 131.94071071892503 24.364072291048785 H 0.0 **** 0.06
15640 H 114.21838545437612 133.3350443078331 25.006757160777887 H 0.0 **** 0.06
15641 C 62.044952240603905 142.40797856427895 127.79022163996342 C 0.0 **** -0.24
15642 H 63.12413406472753 142.39029486380235 127.63718313108927 H 0.0 **** 0.06
15643 H 61.54042497055423 142.2831955287661 126.83237285127365 H 0.0 **** 0.06
15644 H 61.75571625679804 143.36090915911925 128.23284078050548 H 0.0 **** 0.06
15645 H 61.76066727799832 141.59541792445998 128.4590543369151 H 0.0 **** 0.06
15646 C 86.98237308694905 79.60705710906278 73.74766166978287 C 0.0 **** -0.24
15647 H 86.27728731059821 78.80847797903556 73.97740130056181 H 0.0 **** 0.06
15648 H 86.80647754871043 79.96531013220383 72.73339473058623 H 0.0 **** 0.06
15649 H 88.00087495056655 79.22701612319139 73.82691252054941 H 0.0 **** 0.06
15650 H 86.8440235534265 80.4270389213013 74.4525326803826 H 0.0 **** 0.06
15651 C 27.581187193528734 49.39644843071564 22.374344551569123 C 0.0 **** -0.24
15652 H 27.955620611954515 49.14970572867982 23.367887482337167 H 0.0 **** 0.06
15653 H 26.911643848801702 50.25538049580899 22.442237300192645 H 0.0 **** 0.06
15654 H 27.038194343771863 48.54348555081802 21.969081769519164 H 0.0 **** 0.06
15655 H 28.418057670164075 49.63968689191783 21.72070268148365 H 0.0 **** 0.06
15656 C 9.872492559470878 41.05822808232796 40.492274607413464 C 0.0 **** -0.24
15657 H 9.268462987127137 40.85893492625081 41.37634266171523 H 0.0 **** 0.06
15658 H 9.729249756139573 42.09294710674175 40.17999914988485 H 0.0 **** 0.06
15659 H 9.567961421245997 40.3907512986267 39.68583028325243 H 0.0 **** 0.06
15660 H 10.92417917410571 40.8905106841479 40.72470532729163 H 0.0 **** 0.06
15661 C 44.71755320343445 19.240014523599456 74.52995573920421 C 0.0 **** -0.24
15662 H 44.59973783542698 20.316319816550305 74.40574891144382 H 0.0 **** 0.06
15663 H 43.76423310733904 18.802319344962825 74.82764796508872 H 0.0 **** 0.06
15664 H 45.464686831645295 19.042156947601853 75.2978389136045 H 0.0 **** 0.06
15665 H 45.0403505689993 18.799154689477092 73.58603019810403 H 0.0 **** 0.06
15666 C 26.242469427531688 62.63407196104447 83.13459701273986 C 0.0 **** -0.24
15667 H 25.969753533987088 61.96407620713421 83.94954400316014 H 0.0 **** 0.06
15668 H 25.338620354705185 62.99965152206727 82.64710820218745 H 0.0 **** 0.06
15669 H 26.854343080404817 62.09445774075195 82.41085321945403 H 0.0 **** 0.06
15670 H 26.809201921298367 63.47608310220389 83.5317524058747 H 0.0 **** 0.06
15671 C 91.52464248874509 83.61244704540138 124.80208469238991 C 0.0 **** -0.24
15672 H 90.63415916499032 83.79772500821466 125.40339115006188 H 0.0 **** 0.06
15673 H 92.10992163137267 82.81471165971034 125.25880501261676 H 0.0 **** 0.06
15674 H 92.12376637340071 84.52067815469967 124.75166005608216 H 0.0 **** 0.06
15675 H 91.22750996810068 83.31569785340085 123.79613385531067 H 0.0 **** 0.06
15676 C 95.2565610560431 13.996327282482184 95.53708047814528 C 0.0 **** -0.24
15677 H 95.01669301694199 14.83222324786854 94.87879845617785 H 0.0 **** 0.06
15678 H 94.80704588245766 14.164236432452128 96.51589227437361 H 0.0 **** 0.06
15679 H 96.33868695276789 13.915990775915589 95.64292711184775 H 0.0 **** 0.06
15680 H 94.86373608998241 13.07396021647537 95.10903673461462 H 0.0 **** 0.06
15681 C 68.67314188021939 21.43711481066174 125.01783559423649 C 0.0 **** -0.24
15682 H 67.96649404376618 22.19462044742457 125.35599519620212 H 0.0 **** 0.06
15683 H 68.58857367661088 20.5529805837958 125.65016842582992 H 0.0 **** 0.06
15684 H 69.6872616465825 21.8326531464013 125.07909279318994 H 0.0 **** 0.06
15685 H 68.45002620397858 21.169034110789113 123.98495997428677 H 0.0 **** 0.06
15686 C 22.062546495068887 18.00283711467091 144.25690212893144 C 0.0 **** -0.24
15687 H 21.096041663380163 18.154792375082444 143.77494884626802 H 0.0 **** 0.06
15688 H 22.073993948123416 17.028064017940885 144.74610998783095 H 0.0 **** 0.06
15689 H 22.225945503198716 18.783675600398638 144.99858794518755 H 0.0 **** 0.06
15690 H 22.851821283652953 18.0420862294038 143.507031703677 H 0.0 **** 0.06
15691 C 41.05694726006311 97.31744486722829 24.731070714532493 C 0.0 **** -0.24
15692 H 41.77993613359527 96.57425114942171 24.395572485878596 H 0.0 **** 0.06
15693 H 41.46860458404072 98.31638487107284 24.58558865215685 H 0.0 **** 0.06
15694 H 40.84245369331069 97.16406548420571 25.78943229699513 H 0.0 **** 0.06
15695 H 40.13683570922473 97.2150793545008 24.156138621457778 H 0.0 **** 0.06
15696 C 121.17526113971559 127.31198483397498 82.49346591806804 C 0.0 **** -0.24
15697 H 122.17246525980454 127.52099304210176 82.10591925434925 H 0.0 **** 0.06
15698 H 121.05416592598226 126.23628826981874 82.62183551976771 H 0.0 **** 0.06
15699 H 120.42795855340825 127.68129979063329 81.79110902429977 H 0.0 **** 0.06
15700 H 121.04851239840963 127.81020474683763 83.45522348744502 H 0.0 **** 0.06
15701 C 80.09315037048961 104.85194995751215 132.90821976785995 C 0.0 **** -0.24
15702 H 79.76365122501278 103.95219414397928 132.38622762718475 H 0.0 **** 0.06
15703 H 81.14884385250787 104.7555086111239 133.1639780193092 H 0.0 **** 0.06
15704 H 79.50728257638198 104.97813799118796 133.81875609907334 H 0.0 **** 0.06
15705 H 79.95239976450509 105.71810957594687 132.2614673509661 H 0.0 **** 0.06
15706 C 118.63778921792232 121.70167202180501 41.55885462573522 C 0.0 **** -0.24
15707 H 118.28832883733958 120.8218864527826 41.01898457689411 H 0.0 **** 0.06
15708 H 117.78462196015244 122.32371469549501 41.828466223121566 H 0.0 **** 0.06
15709 H 119.31742041146492 122.27065461025826 40.92478433547701 H 0.0 **** 0.06
15710 H 119.16029360377058 121.38825380943327 42.46307313922111 H 0.0 **** 0.06
15711 C 101.791012437502 4.675909719626873 130.02553313976208 C 0.0 **** -0.24
15712 H 102.2149062848813 3.8404331112585623 129.4680111595022 H 0.0 **** 0.06
15713 H 100.9922482615903 5.133850061474789 129.44202364025423 H 0.0 **** 0.06
15714 H 102.56916766130135 5.414850910691655 130.21890919164727 H 0.0 **** 0.06
15715 H 101.38992250317493 4.314572345256238 130.97210328171943 H 0.0 **** 0.06
15716 C 94.71358314252916 26.083570744540552 94.63347482493631 C 0.0 **** -0.24
15717 H 94.26815798111144 27.077423384381575 94.5897569757428 H 0.0 **** 0.06
15718 H 94.97815817128101 25.759618056835208 93.62644173283681 H 0.0 **** 0.06
15719 H 93.99667221536598 25.38394189264669 95.0639038145703 H 0.0 **** 0.06
15720 H 95.60946352910082 26.11310958029378 95.25260213766117 H 0.0 **** 0.06
15721 C 122.73013200232906 104.32893726557312 116.18618543055824 C 0.0 **** -0.24
15722 H 122.29051709649407 104.25094508748235 117.18058618196785 H 0.0 **** 0.06
15723 H 122.0397442122224 104.84974090420474 115.52204824389763 H 0.0 **** 0.06
15724 H 122.92574663501915 103.32983705552326 115.79626800387398 H 0.0 **** 0.06
15725 H 123.66663521845585 104.88453026248249 116.24563368353286 H 0.0 **** 0.06
15726 C 46.89449772617253 34.955483247737504 82.68078795972491 C 0.0 **** -0.24
15727 H 47.7262977190957 35.531606426912276 83.08559004951454 H 0.0 **** 0.06
15728 H 46.675071253571346 35.29564220824801 81.66831087907028 H 0.0 **** 0.06
15729 H 46.01492843661755 35.09507061051342 83.30971971656666 H 0.0 **** 0.06
15730 H 47.16163063878366 33.898862843493546 82.65887374470864 H 0.0 **** 0.06
15731 C 140.89164706165826 123.70693679475727 72.53581536518132 C 0.0 **** -0.24
15732 H 140.4522729165889 123.4854583812012 71.5635244925594 H 0.0 **** 0.06
15733 H 141.86746599909762 124.17448727430775 72.396047895831 H 0.0 **** 0.06
15734 H 141.0087892834498 122.78213851238992 73.1005752483243 H 0.0 **** 0.06
15735 H 140.23798573156017 124.38666019384382 73.0831259672823 H 0.0 **** 0.06
15736 C 97.61224613369586 145.14137485745232 3.257637846452667 C 0.0 **** -0.24
15737 H 97.86181756731946 146.20021406185538 3.1895530948966098 H 0.0 **** 0.06
15738 H 97.24173615616567 144.79303880280906 2.292938775978655 H 0.0 **** 0.06
15739 H 96.8423871973911 144.99663798033035 4.015097627118877 H 0.0 **** 0.06
15740 H 98.50231737987649 144.57486753493492 3.530981067880589 H 0.0 **** 0.06
15741 C 8.012149993862383 59.03970256799498 24.82250501269911 C 0.0 **** -0.24
15742 H 7.989968798236674 59.77725911694502 25.62436796874816 H 0.0 **** 0.06
15743 H 7.564926687891397 58.108901751394995 25.172366530152146 H 0.0 **** 0.06
15744 H 9.04506400620189 58.857835663545956 24.524884467696552 H 0.0 **** 0.06
15745 H 7.4488297078451104 59.41560603176032 23.967820988000184 H 0.0 **** 0.06
15746 C 64.90510733842112 77.74136708025362 29.927164659358823 C 0.0 **** -0.24
15747 H 64.94194686141688 76.65488794380482 30.017141934902384 H 0.0 **** 0.06
15748 H 65.40755396138965 78.19213211499412 30.78333298133964 H 0.0 **** 0.06
15749 H 63.86602827240165 78.06807489887504 29.900981671766374 H 0.0 **** 0.06
15750 H 65.40658531434903 78.04681970022833 29.009081649158418 H 0.0 **** 0.06
15751 C 111.65655732647463 103.40670738377273 52.39705262034397 C 0.0 **** -0.24
15752 H 111.92331326291554 103.1715414128257 51.36673270432385 H 0.0 **** 0.06
15753 H 111.84955094563702 102.5400173868929 53.028776279232204 H 0.0 **** 0.06
15754 H 110.59901514910382 103.66634956587608 52.44872846837717 H 0.0 **** 0.06
15755 H 112.25479174072359 104.24961329899114 52.74454383575642 H 0.0 **** 0.06
15756 C 118.8622814418642 60.064112340579655 42.53470384330626 C 0.0 **** -0.24
15757 H 118.17030400068224 60.77121681904106 42.075452882029936 H 0.0 **** 0.06
15758 H 119.79802633817432 60.57155764745626 42.767750226259096 H 0.0 **** 0.06
15759 H 119.05518575832095 59.244583340631024 41.84350924459213 H 0.0 **** 0.06
15760 H 118.42392366061553 59.670548003168676 43.45191236591731 H 0.0 **** 0.06
15761 C 32.123293154680965 90.31505395185981 7.054559226481118 C 0.0 **** -0.24
15762 H 32.338391310358844 89.40739935665935 6.489912565455089 H 0.0 **** 0.06
15763 H 32.09920630017311 91.1676374457518 6.37544941904628 H 0.0 **** 0.06
15764 H 32.90071103663976 90.46924430663368 7.804110925690498 H 0.0 **** 0.06
15765 H 31.15721682833893 90.21537989720785 7.548368366264505 H 0.0 **** 0.06
15766 C 48.539602494125035 133.71054842489323 13.871990139929189 C 0.0 **** -0.24
15767 H 49.35271981844002 133.34867289606484 14.50202526331298 H 0.0 **** 0.06
15768 H 48.94470395875351 134.35846620811148 13.094191142913687 H 0.0 **** 0.06
15769 H 47.831051758144525 134.27173194116992 14.481056478370043 H 0.0 **** 0.06
15770 H 48.03210937680652 132.86255526922466 13.411512924957186 H 0.0 **** 0.06
15771 C 1.1852244692842078 75.59344925019882 57.963986691278905 C 0.0 **** -0.24
15772 H 0.5134765055883008 75.18408654200645 57.20945455507612 H 0.0 **** 0.06
15773 H 1.2542564436893713 74.89977644863166 58.8024081616924 H 0.0 **** 0.06
15774 H 0.7972889972992903 76.55024719650628 58.314991965000814 H 0.0 **** 0.06
15775 H 2.1736273304765064 75.73889683184102 57.529657758603065 H 0.0 **** 0.06
15776 C 41.87240612291092 48.83548329826249 96.66772887495907 C 0.0 **** -0.24
15777 H 41.541876482297084 49.12740472249442 97.66419759261906 H 0.0 **** 0.06
15778 H 41.043582956992985 48.934121720107896 95.96618090773207 H 0.0 **** 0.06
15779 H 42.210461567465345 47.79865547383611 96.68629072835984 H 0.0 **** 0.06
15780 H 42.69338334099392 49.479328937535286 96.35407294086372 H 0.0 **** 0.06
15781 C 55.22106738886073 70.5151202529317 30.058108987887863 C 0.0 **** -0.24
15782 H 56.17798159872525 70.19808272181996 29.64348470540665 H 0.0 **** 0.06
15783 H 54.42342247142955 69.89831604864122 29.64158630391239 H 0.0 **** 0.06
15784 H 55.043419954003255 71.55987654790442 29.803080420994547 H 0.0 **** 0.06
15785 H 55.23959656469292 70.4029619691886 31.141558584292454 H 0.0 **** 0.06
15786 C 26.34267103181672 90.69773191307831 118.80755864515595 C 0.0 **** -0.24
15787 H 26.056088785073186 90.91795044623936 119.83566189334658 H 0.0 **** 0.06
15788 H 27.372353584220804 90.3373302879632 118.786761673922 H 0.0 **** 0.06
15789 H 26.26207267517237 91.6027613327968 118.20605426503647 H 0.0 **** 0.06
15790 H 25.681954410194678 89.93199023466462 118.40276231866471 H 0.0 **** 0.06
15791 C 81.1964918054378 5.074459702777432 84.06637526339564 C 0.0 **** -0.24
15792 H 81.5975683388595 4.686878537177851 83.1301192453237 H 0.0 **** 0.06
15793 H 80.13365965363676 5.283785662726704 83.94619063029596 H 0.0 **** 0.06
15794 H 81.72004443022826 5.9917401343389045 84.33434936893097 H 0.0 **** 0.06
15795 H 81.33399858616167 4.333314293563873 84.85498438820329 H 0.0 **** 0.06
15796 C 6.128114704204108 89.39918180668914 99.11552790412063 C 0.0 **** -0.24
15797 H 7.116278922702975 89.8068492679972 99.33071538623275 H 0.0 **** 0.06
15798 H 6.1654311325447395 88.82934277999667 98.1869785659297 H 0.0 **** 0.06
15799 H 5.413047804453669 90.21527858452549 99.01215348295116 H 0.0 **** 0.06
15800 H 5.8192364621978925 88.74603575898013 99.93052194472162 H 0.0 **** 0.06
15801 C 50.63066133077267 56.39202921810538 58.69292631177001 C 0.0 **** -0.24
15802 H 51.12780727148717 57.250266851163744 59.14557628446124 H 0.0 **** 0.06
15803 H 50.4947501049638 55.61326897471956 59.444380624995404 H 0.0 **** 0.06
15804 H 51.24083374556554 56.00742915969579 57.876878990278044 H 0.0 **** 0.06
15805 H 49.658543590692716 56.69889037012861 58.306984307913865 H 0.0 **** 0.06
15806 C 38.15425522131932 107.26738499017536 9.08733507919223 C 0.0 **** -0.24
15807 H 38.96336280930586 106.92565540829672 8.441707703974657 H 0.0 **** 0.06
15808 H 37.55738540443045 106.4122052241017 9.404320700658701 H 0.0 **** 0.06
15809 H 37.52307244657652 107.96806750785758 8.53896084903272 H 0.0 **** 0.06
15810 H 38.57283286155496 107.76361192215553 9.962385047120563 H 0.0 **** 0.06
15811 C 50.783064589089236 6.76195191370698 124.4085544907734 C 0.0 **** -0.24
15812 H 50.15798862960965 7.617206818205631 124.66535595251112 H 0.0 **** 0.06
15813 H 50.907751358162514 6.127258410842984 125.28577752669443 H 0.0 **** 0.06
15814 H 51.75780599219071 7.112503840831209 124.07112985363153 H 0.0 **** 0.06
15815 H 50.306439234529094 6.191035097344553 123.61106329921105 H 0.0 **** 0.06
15816 C 60.77232113343996 105.8430576345547 45.28422349612009 C 0.0 **** -0.24
15817 H 61.16184628349322 105.28863126927277 44.43027591577629 H 0.0 **** 0.06
15818 H 60.85602696320488 105.23122425004024 46.18250972399022 H 0.0 **** 0.06
15819 H 59.72550689184328 106.09152827468077 45.10944597719737 H 0.0 **** 0.06
15820 H 61.34590439521867 106.76084674422523 45.414662367516655 H 0.0 **** 0.06
15821 C 81.5501220050416 74.12708924835562 135.32384177709508 C 0.0 **** -0.24
15822 H 82.47864776368 74.57366727982472 135.67857244144307 H 0.0 **** 0.06
15823 H 80.8081520147245 74.14676292163328 136.12291588773002 H 0.0 **** 0.06
15824 H 81.73481709114701 73.09527288330062 135.0236424362725 H 0.0 **** 0.06
15825 H 81.17884612544574 74.69312986669732 134.46890483061594 H 0.0 **** 0.06
15826 C 94.21391701206704 90.57634671522513 82.69212141211901 C 0.0 **** -0.24
15827 H 95.08123175172736 90.1695628702989 82.17392853239794 H 0.0 **** 0.06
15828 H 93.39344526390383 89.86035977448537 82.64339040321087 H 0.0 **** 0.06
15829 H 93.91112474509865 91.50965917863044 82.21832235396245 H 0.0 **** 0.06
15830 H 94.46901416455901 90.76515770532802 83.73564707912678 H 0.0 **** 0.06
15831 C 131.61868312237118 57.38596832712372 131.8373081929609 C 0.0 **** -0.24
15832 H 131.70423796097555 56.30267269773722 131.74493990177766 H 0.0 **** 0.06
15833 H 132.0495508835381 57.7036275912953 132.78693257718658 H 0.0 **** 0.06
15834 H 130.5678090564996 57.67155637783013 131.80085245116632 H 0.0 **** 0.06
15835 H 132.15425871578253 57.863243181194875 131.01671914275525 H 0.0 **** 0.06
15836 C 55.07552473079552 88.71171133961506 107.34328715400657 C 0.0 **** -0.24
15837 H 55.30752071044918 87.87446614481789 108.00253771554186 H 0.0 **** 0.06
15838 H 55.77157369155958 89.52825512481387 107.53480994389234 H 0.0 **** 0.06
15839 H 54.056442073481506 89.05049658898977 107.53168306472254 H 0.0 **** 0.06
15840 H 55.166253358750126 88.39175256269876 106.3056636398568 H 0.0 **** 0.06
15841 C 136.17396936275546 67.87745778299998 50.06853870469271 C 0.0 **** -0.24
15842 H 137.0759859241412 67.62663348229793 50.62737161518319 H 0.0 **** 0.06
15843 H 135.42065129749673 67.10716223732365 50.230456942690324 H 0.0 **** 0.06
15844 H 136.41061175747228 67.93848756170632 49.00584557845437 H 0.0 **** 0.06
15845 H 135.79146340610114 68.83892416504659 50.4107440143695 H 0.0 **** 0.06
15846 C 0.7842801383266931 101.665578493644 99.47963580531909 C 0.0 **** -0.24
15847 H 1.4273512632521488 101.94236267850057 98.64457418337331 H 0.0 **** 0.06
15848 H 1.2872464834873085 100.9166169479149 100.09250399446073 H 0.0 **** 0.06
15849 H -0.15047800634550867 101.25497243406534 99.09768321922442 H 0.0 **** 0.06
15850 H 0.5742433363840291 102.5477073559225 100.0836151617251 H 0.0 **** 0.06
15851 C 25.548851397535884 54.31606337457501 64.01884812626288 C 0.0 **** -0.24
15852 H 25.596561054288713 54.08336710617458 62.95461029002013 H 0.0 **** 0.06
15853 H 24.98046979207527 53.54132842573176 64.53472898744671 H 0.0 **** 0.06
15854 H 25.06020665382431 55.27995976616033 64.15712649985875 H 0.0 **** 0.06
15855 H 26.559102243292955 54.35760554580126 64.42688783611625 H 0.0 **** 0.06
15856 C 117.60078813849987 144.29731159079182 122.8999283454365 C 0.0 **** -0.24
15857 H 117.65365805116079 144.01632441870115 123.95139581724345 H 0.0 **** 0.06
15858 H 117.6489600694967 143.40070167605404 122.28221643120581 H 0.0 **** 0.06
15859 H 118.43773050472333 144.95137342425448 122.65699326268607 H 0.0 **** 0.06
15860 H 116.66408723366686 144.8208983179776 122.71093836153118 H 0.0 **** 0.06
15861 C 58.62505339897416 133.66668620139328 59.81996250506447 C 0.0 **** -0.24
15862 H 59.19958429398834 134.17185279849593 60.59688327995245 H 0.0 **** 0.06
15863 H 57.568270282231154 133.90393745918132 59.93768731299603 H 0.0 **** 0.06
15864 H 58.76873488524626 132.58977242959818 59.90569604065085 H 0.0 **** 0.06
15865 H 58.96643065941355 134.0015014601415 58.84059424344717 H 0.0 **** 0.06
15866 C 7.610778984606924 69.80190487600338 107.6527404992933 C 0.0 **** -0.24
15867 H 8.175215312258814 70.37768803112388 108.38663307549218 H 0.0 **** 0.06
15868 H 6.606214162791787 70.2153477755192 107.56301098606458 H 0.0 **** 0.06
15869 H 7.5489910240197275 68.76341299097001 107.9768727500536 H 0.0 **** 0.06
15870 H 8.113483499750146 69.85317597599888 106.68733627921743 H 0.0 **** 0.06
15871 C 83.12044817533251 12.20277495306047 2.39404773349559 C 0.0 **** -0.24
15872 H 83.90577897258538 11.47277522604864 2.593421478733081 H 0.0 **** 0.06
15873 H 83.49335501073534 12.95708335137192 1.700738815581694 H 0.0 **** 0.06
15874 H 82.8248929862982 12.681095112745396 3.328443207104293 H 0.0 **** 0.06
15875 H 82.25881470988958 11.698824578148702 1.9550548741598348 H 0.0 **** 0.06
15876 C 37.885495461318555 78.3382560078038 101.29608198298939 C 0.0 **** -0.24
15877 H 38.02264423031389 78.80653931322011 102.27061974277507 H 0.0 **** 0.06
15878 H 36.82402464470891 78.32106589267592 101.04828142656095 H 0.0 **** 0.06
15879 H 38.26861092887677 77.31768540361969 101.32726097815254 H 0.0 **** 0.06
15880 H 38.426433999100794 78.90699912552755 100.540260821672 H 0.0 **** 0.06
15881 C 89.32992153544629 3.9147182940776872 21.189984547262334 C 0.0 **** -0.24
15882 H 90.2280186893764 3.546985597803939 21.686052136702692 H 0.0 **** 0.06
15883 H 89.20760024887653 4.977129148942282 21.40168620520543 H 0.0 **** 0.06
15884 H 88.46269286846211 3.3671710948719635 21.558707192618705 H 0.0 **** 0.06
15885 H 89.42275097353144 3.7658589082185188 20.113835622276248 H 0.0 **** 0.06
15886 C 35.39019954813858 98.10816186807217 65.97461910967333 C 0.0 **** -0.24
15887 H 35.88307904202986 98.28690991074203 65.01991980579285 H 0.0 **** 0.06
15888 H 35.96480608793172 98.57679194899663 66.7742046977917 H 0.0 **** 0.06
15889 H 35.32488682901925 97.03475992867122 66.15515293760012 H 0.0 **** 0.06
15890 H 34.38677432706328 98.53448824403499 65.95102694878028 H 0.0 **** 0.06
15891 C 35.48083864572671 102.13173026521287 28.005625356501497 C 0.0 **** -0.24
15892 H 35.53987287412872 101.90881181727673 26.940207490031298 H 0.0 **** 0.06
15893 H 34.93324130802547 101.33693863518423 28.513491852142863 H 0.0 **** 0.06
15894 H 34.96506332634873 103.08078639902463 28.151207510320376 H 0.0 **** 0.06
15895 H 36.48822461486431 102.19953987996662 28.417588106019053 H 0.0 **** 0.06
15896 C 116.54928144637442 143.91140283025126 25.262060375755965 C 0.0 **** -0.24
15897 H 116.90033790409272 143.5918474226912 26.244081084355173 H 0.0 **** 0.06
15898 H 115.92878368451825 144.80095274820684 25.371126283374494 H 0.0 **** 0.06
15899 H 115.96372508127756 143.11190330710895 24.80825188253064 H 0.0 **** 0.06
15900 H 117.4049077353903 144.13976168882706 24.6272905424684 H 0.0 **** 0.06
15901 C 31.948371313026932 136.10535669816474 80.20645933340694 C 0.0 **** -0.24
15902 H 30.891309437426614 135.9009332921252 80.37344470042005 H 0.0 **** 0.06
15903 H 32.076899676644345 136.58558512643506 79.23623099459721 H 0.0 **** 0.06
15904 H 32.5065847657875 135.1697488663017 80.22607029015457 H 0.0 **** 0.06
15905 H 32.31859410061495 136.76557170644855 80.99177086075035 H 0.0 **** 0.06
15906 C 102.41715011550218 34.94150455630795 100.01773114933209 C 0.0 **** -0.24
15907 H 102.21326074331611 34.98368080463794 101.08783964896638 H 0.0 **** 0.06
15908 H 103.38557836247283 34.470372867049605 99.85125132040777 H 0.0 **** 0.06
15909 H 102.42869089306393 35.95196598901959 99.6095456696324 H 0.0 **** 0.06
15910 H 101.6395386369489 34.358676494579164 99.5232397240181 H 0.0 **** 0.06
15911 C 127.10303648072775 93.6168863075605 107.97637912098504 C 0.0 **** -0.24
15912 H 126.88789923238218 93.14655980021585 107.01746265452245 H 0.0 **** 0.06
15913 H 127.66597674988819 94.53608354244604 107.81059719837684 H 0.0 **** 0.06
15914 H 127.69151223690616 92.93607488867315 108.59117500477721 H 0.0 **** 0.06
15915 H 126.16735384229688 93.84968961653504 108.48490298900599 H 0.0 **** 0.06
15916 C 23.02467323355937 143.2790090617508 136.32185048337735 C 0.0 **** -0.24
15917 H 22.410158184564835 143.65398542831673 135.50411897249427 H 0.0 **** 0.06
15918 H 23.26727675398196 142.23165668466322 136.14302819039094 H 0.0 **** 0.06
15919 H 22.478115182903963 143.37133112569649 137.25974641448212 H 0.0 **** 0.06
15920 H 23.945358907619863 143.86061045160176 136.37967487401397 H 0.0 **** 0.06
15921 C 47.63304905632407 111.21132063527944 109.13551712067583 C 0.0 **** -0.24
15922 H 47.46224687430586 110.7713032744972 110.11817944663518 H 0.0 **** 0.06
15923 H 48.54558411469468 110.79889009565284 108.70604107100154 H 0.0 **** 0.06
15924 H 47.732841741575925 112.29196249331176 109.23503833096466 H 0.0 **** 0.06
15925 H 46.78839010485143 110.98227323799472 108.48437618334911 H 0.0 **** 0.06
15926 C 33.901790763170055 14.163114677949643 135.9075985226748 C 0.0 **** -0.24
15927 H 33.471637375218364 13.57263077382791 136.71626266684905 H 0.0 **** 0.06
15928 H 33.1025139038735 14.646167597386345 135.34591421910125 H 0.0 **** 0.06
15929 H 34.47045609743515 13.511538895459843 135.2446063606182 H 0.0 **** 0.06
15930 H 34.56288864709694 14.922571752528576 136.32490947454625 H 0.0 **** 0.06
15931 C 96.19990057454913 37.45441794273009 125.23699033056559 C 0.0 **** -0.24
15932 H 96.46474151600599 38.304865743450875 125.86500840162907 H 0.0 **** 0.06
15933 H 96.97252032521658 37.30565008504635 124.48331089055475 H 0.0 **** 0.06
15934 H 95.245660908711 37.64907483517746 124.74679416638307 H 0.0 **** 0.06
15935 H 96.1152018442366 36.5595011689594 125.85374230986501 H 0.0 **** 0.06
15936 C 59.89728798864026 86.01249372059068 144.10489255091966 C 0.0 **** -0.24
15937 H 60.47275147434064 85.21591402770827 143.63197234573192 H 0.0 **** 0.06
15938 H 60.24023253655257 86.14830081387835 145.13105550529826 H 0.0 **** 0.06
15939 H 58.84102165106596 85.7450360335284 144.10727339120342 H 0.0 **** 0.06
15940 H 60.03628340511125 86.93989503375263 143.54940990629078 H 0.0 **** 0.06
15941 C 127.52018629665551 80.73433475432196 29.110989607577807 C 0.0 **** -0.24
15942 H 128.04842944118812 81.47572023883055 28.51083739869469 H 0.0 **** 0.06
15943 H 127.6763958907326 79.7442194058059 28.682759463674508 H 0.0 **** 0.06
15944 H 126.45511180406712 80.9639004837122 29.116444364459703 H 0.0 **** 0.06
15945 H 127.90226775861484 80.75442676952653 30.131465941895883 H 0.0 **** 0.06
15946 C 115.42250003751172 66.99585746301554 114.04093915249753 C 0.0 **** -0.24
15947 H 115.70498083156792 66.54461163373361 114.9920294185081 H 0.0 **** 0.06
15948 H 114.52745139976378 67.60317800708276 114.17897403440925 H 0.0 **** 0.06
15949 H 115.21960214267443 66.21065312648179 113.31270259207095 H 0.0 **** 0.06
15950 H 116.23698189086969 67.62381240008247 113.68167915466124 H 0.0 **** 0.06
15951 C 121.6755525786687 140.85421495323493 73.6931572392165 C 0.0 **** -0.24
15952 H 121.96422712305555 141.44064884284182 74.56569790713525 H 0.0 **** 0.06
15953 H 121.21393980557032 141.5066598807554 72.95326935730182 H 0.0 **** 0.06
15954 H 120.9645798782134 140.0837692041202 73.99382170827064 H 0.0 **** 0.06
15955 H 122.55971541830381 140.38404264183268 73.26314334382616 H 0.0 **** 0.06
15956 C 77.6025725816658 47.50277827193159 48.00013700867021 C 0.0 **** -0.24
15957 H 77.31675014156451 46.566508407659484 47.52080813596365 H 0.0 **** 0.06
15958 H 78.33863399124942 48.01759460420399 47.381579250637 H 0.0 **** 0.06
15959 H 78.0347202064385 47.292377491522785 48.97876301782753 H 0.0 **** 0.06
15960 H 76.72240626931233 48.133856544156856 48.11871325316065 H 0.0 **** 0.06
15961 C 81.90831539479885 46.606404600894024 52.8314834579827 C 0.0 **** -0.24
15962 H 82.75252710278153 47.04447511214906 52.29877459966123 H 0.0 **** 0.06
15963 H 81.25602030152523 46.09660233616434 52.123036125512854 H 0.0 **** 0.06
15964 H 81.35032871120231 47.39495673757418 53.33723964651995 H 0.0 **** 0.06
15965 H 82.27473751576879 45.89080156467011 53.567511324093005 H 0.0 **** 0.06
15966 C 46.240908502510166 136.52341971467442 19.651803976989342 C 0.0 **** -0.24
15967 H 45.375048736504084 135.93231562701612 19.95159683629305 H 0.0 **** 0.06
15968 H 45.93421019776753 137.2712396156921 18.920123400460717 H 0.0 **** 0.06
15969 H 46.99175599041996 135.86850964147584 19.209199454736584 H 0.0 **** 0.06
15970 H 46.6618425388215 137.01997706057426 20.52498560338286 H 0.0 **** 0.06
15971 C 6.6597862406743396 31.485806479532698 41.46600564417734 C 0.0 **** -0.24
15972 H 7.635683182450855 31.94508042306711 41.3094984969906 H 0.0 **** 0.06
15973 H 6.204044235940522 31.262868727089824 40.50134411054538 H 0.0 **** 0.06
15974 H 6.019397863250791 32.17417239887857 42.01946754714034 H 0.0 **** 0.06
15975 H 6.7788918003312695 30.56315728954604 42.03442912614619 H 0.0 **** 0.06
15976 C 16.88991639971416 35.86462923075777 134.86699443638432 C 0.0 **** -0.24
15977 H 17.11193327073051 34.872902333364976 135.26039517797747 H 0.0 **** 0.06
15978 H 16.693493166234326 35.79575818404561 133.79653302315705 H 0.0 **** 0.06
15979 H 17.74139438544902 36.522435079484325 135.03838451117556 H 0.0 **** 0.06
15980 H 16.01197004956464 36.267788591531314 135.37298128107363 H 0.0 **** 0.06
15981 C 86.4497432934204 136.74481465746044 123.46909460644389 C 0.0 **** -0.24
15982 H 85.98298087281569 136.68949069704416 122.48574828413071 H 0.0 **** 0.06
15983 H 86.6262764562199 135.73627948839976 123.84471650178364 H 0.0 **** 0.06
15984 H 85.79055799703008 137.2781647090716 124.15366333411488 H 0.0 **** 0.06
15985 H 87.39846101008345 137.27647001863585 123.39046126398159 H 0.0 **** 0.06
15986 C 80.8728416246478 144.47259256327337 52.09352206320345 C 0.0 **** -0.24
15987 H 80.50743195397769 143.71082095187862 51.40519317388414 H 0.0 **** 0.06
15988 H 81.68098566285715 144.05889573748934 52.697095642405046 H 0.0 **** 0.06
15989 H 80.05882643626347 144.79216381717262 52.74553008462726 H 0.0 **** 0.06
15990 H 81.24224837286471 145.3273117903233 51.52731841481152 H 0.0 **** 0.06
15991 C 142.811518182805 90.02191102420772 54.36639801281129 C 0.0 **** -0.24
15992 H 143.25406610504672 89.43659769431225 55.173335807021374 H 0.0 **** 0.06
15993 H 143.18408092874256 89.65829982547457 53.40815856331821 H 0.0 **** 0.06
15994 H 143.08330318240465 91.07013418631934 54.487855749289594 H 0.0 **** 0.06
15995 H 141.72692739096655 89.92124547817396 54.398196305551636 H 0.0 **** 0.06
15996 C 81.30436217656958 111.85620834699387 10.891732080792991 C 0.0 **** -0.24
15997 H 81.80944985353773 112.21307714703556 11.789188478386365 H 0.0 **** 0.06
15998 H 80.53575497969413 111.1346079445292 11.170615178503255 H 0.0 **** 0.06
15999 H 82.0293872968775 111.37850164617032 10.23181706053552 H 0.0 **** 0.06
16000 H 80.84262156741474 112.69737360397613 10.375877001442774 H 0.0 **** 0.06
16001 C 135.5317310931684 74.93880648112072 135.25556290161924 C 0.0 **** -0.24
16002 H 134.54312716443843 74.803553458861 135.6938114276943 H 0.0 **** 0.06
16003 H 136.19979309579844 75.3785396730834 135.9971597220191 H 0.0 **** 0.06
16004 H 135.45887945301567 75.60109409310824 134.3931565963469 H 0.0 **** 0.06
16005 H 135.9240800493318 73.97208906604837 134.9401003399577 H 0.0 **** 0.06
16006 C 88.20433097179892 10.230215703196905 106.95810616105092 C 0.0 **** -0.24
16007 H 87.32951115791144 10.496165593899207 106.36630487247834 H 0.0 **** 0.06
16008 H 88.57533142990218 9.254879124138938 106.63990150256473 H 0.0 **** 0.06
16009 H 87.93169584901261 10.188281573467577 108.01256408303004 H 0.0 **** 0.06
16010 H 88.98254243687495 10.979841010296752 106.81385040797073 H 0.0 **** 0.06
16011 C 49.45842101018779 4.549881182806345 25.234683588678692 C 0.0 **** -0.24
16012 H 49.649225059324635 5.207364604726777 26.083036860548226 H 0.0 **** 0.06
16013 H 50.31661223672717 4.567398107061674 24.562122128502793 H 0.0 **** 0.06
16014 H 48.571483888151306 4.892765385955908 24.70217457683937 H 0.0 **** 0.06
16015 H 49.29775666631859 3.533179879495716 25.592688205463652 H 0.0 **** 0.06
16016 C 137.28940969468258 30.522083791416634 140.52112401642808 C 0.0 **** -0.24
16017 H 136.61109069716306 29.979889036220243 141.17913012286112 H 0.0 **** 0.06
16018 H 137.17450523920436 31.593791257870606 140.68451613487008 H 0.0 **** 0.06
16019 H 137.05532317769595 30.285664429272273 139.48272942794583 H 0.0 **** 0.06
16020 H 138.3165534583069 30.229519055387783 140.7368192147816 H 0.0 **** 0.06
16021 C 59.45009921939091 59.318354324066775 86.62205651287528 C 0.0 **** -0.24
16022 H 60.19515877529271 59.77164805656008 85.96716109625683 H 0.0 **** 0.06
16023 H 58.773891020805976 58.701661155808665 86.0288896205522 H 0.0 **** 0.06
16024 H 58.88200846457488 60.1025933078879 87.1230944728247 H 0.0 **** 0.06
16025 H 59.94948186523766 58.69825011877953 87.36600853575442 H 0.0 **** 0.06
16026 C 16.14964724410308 70.2308022818237 103.31646732792802 C 0.0 **** -0.24
16027 H 15.175574529808472 70.71693473761721 103.25215923773249 H 0.0 **** 0.06
16028 H 16.743893228148266 70.71157054661167 104.0935937567375 H 0.0 **** 0.06
16029 H 16.66248715416009 70.31817370956854 102.35837632107157 H 0.0 **** 0.06
16030 H 16.013775742664023 69.1774139640739 103.56151810858617 H 0.0 **** 0.06
16031 C 86.28801991108293 44.194071933805276 66.89021616789992 C 0.0 **** -0.24
16032 H 87.33795463765537 44.20300067829061 67.18299295393206 H 0.0 **** 0.06
16033 H 86.13971319874838 43.462970206485124 66.09548081566345 H 0.0 **** 0.06
16034 H 86.00238382440403 45.18361107554654 66.53357460618605 H 0.0 **** 0.06
16035 H 85.67462390351858 43.925887552265635 67.75071160360497 H 0.0 **** 0.06
16036 C 15.65296526414059 113.69800374885645 66.21072384382494 C 0.0 **** -0.24
16037 H 14.712567475713087 113.38387224141289 66.66415114198232 H 0.0 **** 0.06
16038 H 15.686807002449797 113.35962277684095 65.17461574258662 H 0.0 **** 0.06
16039 H 16.4856243013611 113.26175507077451 66.76280348406166 H 0.0 **** 0.06
16040 H 15.725335987677738 114.78523002316993 66.24076394279125 H 0.0 **** 0.06
16041 C 102.8219890651187 94.52463306923845 137.5086318685457 C 0.0 **** -0.24
16042 H 102.2521366523219 93.65883126667845 137.1713836486837 H 0.0 **** 0.06
16043 H 103.14020543613843 95.1087421523406 136.6445301031304 H 0.0 **** 0.06
16044 H 103.69808395307649 94.18966732582066 138.06269101189454 H 0.0 **** 0.06
16045 H 102.19663393297384 95.14099443566454 138.1548698607538 H 0.0 **** 0.06
16046 C 31.828035681724224 113.6564410872628 133.2241260567988 C 0.0 **** -0.24
16047 H 30.741997434440222 113.56532772857736 133.253861596175 H 0.0 **** 0.06
16048 H 32.206930699383854 113.80915369328301 134.23498279674402 H 0.0 **** 0.06
16049 H 32.10448662755739 114.50683940778038 132.6004157956125 H 0.0 **** 0.06
16050 H 32.25834768982293 112.74502142728869 132.80847752974427 H 0.0 **** 0.06
16051 C 124.06536743584775 102.63671839220834 99.9122254926381 C 0.0 **** -0.24
16052 H 124.78182412529246 102.99868359020203 99.17413203780322 H 0.0 **** 0.06
16053 H 124.151518295759 103.22791926549974 100.8231966209834 H 0.0 **** 0.06
16054 H 124.27212038092269 101.5894859125161 100.13580167104337 H 0.0 **** 0.06
16055 H 123.05501202151306 102.72928280730318 99.51249219533875 H 0.0 **** 0.06
16056 C 8.408048034544066 49.77124113440178 90.7502003910879 C 0.0 **** -0.24
16057 H 8.600171033755743 50.29999554881297 91.6830767815085 H 0.0 **** 0.06
16058 H 8.852035291111491 50.323111157199406 89.92150520932219 H 0.0 **** 0.06
16059 H 7.3322052046393935 49.68647330745861 90.5953955510744 H 0.0 **** 0.06
16060 H 8.847939911595887 48.77429627952935 90.79948593526686 H 0.0 **** 0.06
16061 C 80.25647544586813 27.275036898266535 129.24646066238202 C 0.0 **** -0.24
16062 H 79.29087581139514 26.901570810525328 128.9048141424473 H 0.0 **** 0.06
16063 H 80.88448968352554 27.498622471362722 128.38347019269744 H 0.0 **** 0.06
16064 H 80.74126529737069 26.51840746401433 129.86356001019632 H 0.0 **** 0.06
16065 H 80.10789966990723 28.18166788716428 129.83294713420625 H 0.0 **** 0.06
16066 C 131.11477095450397 101.18865718115242 113.80310754896023 C 0.0 **** -0.24
16067 H 130.5499074714216 101.03873159596807 112.88232281994665 H 0.0 **** 0.06
16068 H 132.09022195818525 101.6132273315506 113.56503311070328 H 0.0 **** 0.06
16069 H 131.24769999276788 100.2322522090727 114.30728631681593 H 0.0 **** 0.06
16070 H 130.57013444275242 101.87169399374883 114.45552590430087 H 0.0 **** 0.06
16071 C 126.57387506700661 117.80160724179616 72.10673254377517 C 0.0 **** -0.24
16072 H 127.61089830642777 117.8188124411043 72.44421105283166 H 0.0 **** 0.06
16073 H 125.91064351575221 117.87710715213474 72.96765327809725 H 0.0 **** 0.06
16074 H 126.38043787903985 116.86744069764923 71.57888896390665 H 0.0 **** 0.06
16075 H 126.39717369107427 118.64156221598488 71.43499959397438 H 0.0 **** 0.06
16076 C 39.66684254261425 23.82815265730151 40.41860183142444 C 0.0 **** -0.24
16077 H 39.30423478658602 23.233139077527667 39.57984656774201 H 0.0 **** 0.06
16078 H 40.7509024796784 23.73476213162084 40.486389562506076 H 0.0 **** 0.06
16079 H 39.21223539713765 23.46961083444225 41.34162510371772 H 0.0 **** 0.06
16080 H 39.40090615112271 24.87393187131817 40.263935816488925 H 0.0 **** 0.06
16081 C 13.304047156519687 68.51401656339554 15.742467258721149 C 0.0 **** -0.24
16082 H 12.666957272932812 68.83301220569493 14.918186291920676 H 0.0 **** 0.06
16083 H 13.627292058749546 69.38604307990417 16.311165240315574 H 0.0 **** 0.06
16084 H 14.17680238193909 67.99386855255554 15.3473821154019 H 0.0 **** 0.06
16085 H 12.744432125682074 67.84197731786873 16.394205879808908 H 0.0 **** 0.06
16086 C 106.76636115987336 103.28768088964426 142.8526920065674 C 0.0 **** -0.24
16087 H 105.68422695825146 103.30094751141655 142.98631649558695 H 0.0 **** 0.06
16088 H 107.00275844619969 103.42083634755568 141.7971130976639 H 0.0 **** 0.06
16089 H 107.16290370975165 102.33289808408364 143.19802329257337 H 0.0 **** 0.06
16090 H 107.21246071340042 104.09741386106441 143.43090878189776 H 0.0 **** 0.06
16091 C 75.94396296644442 113.37260551211374 125.55683566601995 C 0.0 **** -0.24
16092 H 74.94020470850074 112.95573326521485 125.46971608860969 H 0.0 **** 0.06
16093 H 75.90367625318578 114.30062815236577 126.12589875065085 H 0.0 **** 0.06
16094 H 76.34084624005482 113.57271431342922 124.56107310652419 H 0.0 **** 0.06
16095 H 76.59001616877549 112.65906241622285 126.06829769524748 H 0.0 **** 0.06
16096 C 24.507117733499854 105.20290867931959 133.91633472209082 C 0.0 **** -0.24
16097 H 25.1342723315787 105.87113914964783 134.50685150022798 H 0.0 **** 0.06
16098 H 23.458115829258986 105.40436109462638 134.13297455629194 H 0.0 **** 0.06
16099 H 24.73991187414765 104.16868201915338 134.16935643727086 H 0.0 **** 0.06
16100 H 24.69782913377486 105.37045081833963 132.85564591239412 H 0.0 **** 0.06
16101 C 25.76696558090923 39.48456175836709 50.54515891527424 C 0.0 **** -0.24
16102 H 25.2834552397685 40.20593960996442 49.88674747632261 H 0.0 **** 0.06
16103 H 25.204354639032864 38.55043507725003 50.53660228383936 H 0.0 **** 0.06
16104 H 25.79599297242966 39.8809335226365 51.55942449670178 H 0.0 **** 0.06
16105 H 26.783616368742642 39.300127929373744 50.1974791041531 H 0.0 **** 0.06
16106 C 119.54908852990863 52.81377847421331 120.26204631150807 C 0.0 **** -0.24
16107 H 119.6878516945579 51.7356625238144 120.18453079035635 H 0.0 **** 0.06
16108 H 119.7576618775744 53.1345928051995 121.28250709241047 H 0.0 **** 0.06
16109 H 118.52073999465611 53.0679040093936 120.00437711453975 H 0.0 **** 0.06
16110 H 120.22986129889634 53.31740398884526 119.57590954346517 H 0.0 **** 0.06
16111 C 52.59919784659719 13.730811907604874 97.51434633826605 C 0.0 **** -0.24
16112 H 52.202786207301884 13.40189953016602 98.47522582030942 H 0.0 **** 0.06
16113 H 53.63174743862231 14.056627068461438 97.64084822268191 H 0.0 **** 0.06
16114 H 51.99929248703907 14.559467895371114 97.13820180846946 H 0.0 **** 0.06
16115 H 52.563007506206745 12.904077114230205 96.8050109234188 H 0.0 **** 0.06
16116 C 115.03915445301986 138.9642356448332 131.3000164860337 C 0.0 **** -0.24
16117 H 114.40684142125578 139.61775897714637 130.6979339021749 H 0.0 **** 0.06
16118 H 116.0854882429005 139.15446911638915 131.06247555596053 H 0.0 **** 0.06
16119 H 114.79929793858359 137.92402013395187 131.08097444420318 H 0.0 **** 0.06
16120 H 114.86357042155974 139.1626317676389 132.356884539128 H 0.0 **** 0.06
16121 C 34.52624930555703 69.17542959005394 74.7815334237402 C 0.0 **** -0.24
16122 H 33.6722278811763 69.66825711099973 75.24695943344125 H 0.0 **** 0.06
16123 H 34.19981132853883 68.65903493831836 73.87878666495396 H 0.0 **** 0.06
16124 H 34.95318689717027 68.4556844074469 75.47892642532389 H 0.0 **** 0.06
16125 H 35.27844022312382 69.92180235166556 74.52282607068605 H 0.0 **** 0.06
16126 C 137.1318515721719 119.04718890705958 56.89964165713465 C 0.0 **** -0.24
16127 H 137.83874249247887 119.56465452830678 56.25134663268213 H 0.0 **** 0.06
16128 H 136.22238599933343 119.64000132093149 56.99276346939851 H 0.0 **** 0.06
16129 H 137.5779742816181 118.90803646435678 57.8847838076928 H 0.0 **** 0.06
16130 H 136.89113237964062 118.07506623227475 56.469733924885674 H 0.0 **** 0.06
16131 C 104.73201453410785 14.656908366401609 42.64395419416883 C 0.0 **** -0.24
16132 H 103.89836693970832 15.161977883596165 43.131584542299095 H 0.0 **** 0.06
16133 H 105.00809133108915 13.773664407573108 43.21968555061174 H 0.0 **** 0.06
16134 H 105.58378116302465 15.335157257356542 42.58806168831107 H 0.0 **** 0.06
16135 H 104.43794741642381 14.358324768501262 41.63735730608758 H 0.0 **** 0.06
16136 C 132.54537306451158 57.23508330339939 99.20944845688243 C 0.0 **** -0.24
16137 H 131.61939660407387 56.663978217078125 99.28354646219984 H 0.0 **** 0.06
16138 H 132.37771551819495 58.12109303650823 98.59731890825506 H 0.0 **** 0.06
16139 H 133.31647055998988 56.61600841501968 98.75021990905235 H 0.0 **** 0.06
16140 H 132.86714210433522 57.536553654186605 100.2056493170049 H 0.0 **** 0.06
16141 C 74.20853004840838 78.84579190217781 52.62012045937132 C 0.0 **** -0.24
16142 H 74.59759683035254 79.86344402513991 52.64978663613779 H 0.0 **** 0.06
16143 H 73.69804462030926 78.67973983266391 51.671460227614574 H 0.0 **** 0.06
16144 H 73.50636311065686 78.70123806407716 53.44156291142248 H 0.0 **** 0.06
16145 H 75.03211563231477 78.13874568683036 52.717672062310555 H 0.0 **** 0.06
16146 C 79.33125479514078 46.26110984986974 106.20895343994572 C 0.0 **** -0.24
16147 H 78.96796043424186 46.53901584167696 107.19762290009503 H 0.0 **** 0.06
16148 H 80.16958877953346 45.57175712710614 106.30990320469321 H 0.0 **** 0.06
16149 H 79.65869247027095 47.155837336204826 105.67828758894943 H 0.0 **** 0.06
16150 H 78.52989188396492 45.77954359193416 105.64909515856813 H 0.0 **** 0.06
16151 C 143.00982772591746 139.92431207373016 137.78193825551443 C 0.0 **** -0.24
16152 H 143.46055005511909 140.62073258068642 137.07499430583334 H 0.0 **** 0.06
16153 H 143.31963631569505 138.90808556750858 137.53724407346147 H 0.0 **** 0.06
16154 H 141.92433219562423 139.99850124176382 137.72226174997348 H 0.0 **** 0.06
16155 H 143.3364430965515 140.1712670005853 138.79255668004936 H 0.0 **** 0.06
16156 C 109.01063834883645 23.77006618414606 19.961513169481236 C 0.0 **** -0.24
16157 H 109.68928498389785 22.93101106850159 19.806377172295072 H 0.0 **** 0.06
16158 H 108.51773967379542 23.66364010109038 20.928958451744165 H 0.0 **** 0.06
16159 H 108.2610047606017 23.780227104539136 19.170931680612227 H 0.0 **** 0.06
16160 H 109.57470984379351 24.70260242343366 19.940887631605506 H 0.0 **** 0.06
16161 C 4.420049989583678 98.3255512751808 60.14590353964988 C 0.0 **** -0.24
16162 H 3.491194627528614 97.75848381655615 60.192626564950075 H 0.0 **** 0.06
16163 H 5.227710702357044 97.73765833245386 60.58306941052879 H 0.0 **** 0.06
16164 H 4.306322609418189 99.25714762248175 60.70114066776054 H 0.0 **** 0.06
16165 H 4.656173698881275 98.55002210269423 59.104952335880995 H 0.0 **** 0.06
16166 C 106.66204887445745 111.29439840058745 140.76962535360732 C 0.0 **** -0.24
16167 H 107.11483571840698 110.30827288967902 140.86887963579642 H 0.0 **** 0.06
16168 H 107.31835527196368 111.93803624285277 140.18385224175216 H 0.0 **** 0.06
16169 H 106.5148671893448 111.72728972790514 141.75918311067187 H 0.0 **** 0.06
16170 H 105.69978806854992 111.20178622848977 140.26655975015058 H 0.0 **** 0.06
16171 C 86.38958933629117 114.6335718116833 90.58934075732023 C 0.0 **** -0.24
16172 H 87.32804596367549 115.09936695185009 90.28710247027331 H 0.0 **** 0.06
16173 H 85.56269858681334 115.30843715326641 90.37101691258974 H 0.0 **** 0.06
16174 H 86.41703148564726 114.42581905971171 91.65972558811072 H 0.0 **** 0.06
16175 H 86.25311309942003 113.70204500096251 90.04168223663467 H 0.0 **** 0.06
16176 C 56.401779230908005 54.48617046087554 36.90966439524314 C 0.0 **** -0.24
16177 H 55.370608848825384 54.38887494058426 37.25091821669366 H 0.0 **** 0.06
16178 H 56.80463461737486 53.49839580193961 36.68510778562768 H 0.0 **** 0.06
16179 H 57.00068956671578 54.9545432175739 37.690531384256474 H 0.0 **** 0.06
16180 H 56.429960290264205 55.10281923560379 36.01139271811297 H 0.0 **** 0.06
16181 C 46.152310710171605 36.758708653145476 108.72034950174226 C 0.0 **** -0.24
16182 H 46.4835372000839 37.30488788010314 107.8382077457813 H 0.0 **** 0.06
16183 H 46.11429601011713 37.436746222725986 109.5743073078723 H 0.0 **** 0.06
16184 H 46.85009889091015 35.94847470865767 108.93019820154434 H 0.0 **** 0.06
16185 H 45.15967033044882 36.345717031822346 108.53983659288603 H 0.0 **** 0.06
16186 C 136.96384554766823 51.22992365615313 109.16341114946117 C 0.0 **** -0.24
16187 H 137.4354843261723 51.330074045094634 108.18596158607873 H 0.0 **** 0.06
16188 H 136.18180567571238 51.98137104398313 109.26814567225377 H 0.0 **** 0.06
16189 H 137.71220017503182 51.371653518442415 109.94308985938277 H 0.0 **** 0.06
16190 H 136.52777866969623 50.23496291220263 109.25511562156326 H 0.0 **** 0.06
16191 C 139.36841646999238 143.2518705524186 75.24436218328206 C 0.0 **** -0.24
16192 H 139.03132123413872 144.2573409968751 74.99504947779891 H 0.0 **** 0.06
16193 H 138.7536813086861 142.52093834640664 74.71906161401542 H 0.0 **** 0.06
16194 H 139.2789620413295 143.09570352044892 76.31998559065991 H 0.0 **** 0.06
16195 H 140.40977536147665 143.13316857039257 74.94505064797487 H 0.0 **** 0.06
16196 C 123.27133020946914 94.32251332952174 77.51848724089105 C 0.0 **** -0.24
16197 H 123.2038562078645 94.99188133539164 78.3770905850863 H 0.0 **** 0.06
16198 H 124.18696095823051 94.53397956580935 76.965680506984 H 0.0 **** 0.06
16199 H 122.4100931435336 94.47682929445946 76.86927991802843 H 0.0 **** 0.06
16200 H 123.28580462473954 93.2891872794086 77.86429157556987 H 0.0 **** 0.06
16201 C 115.34917960138343 12.840916080109963 129.18634167919473 C 0.0 **** -0.24
16202 H 116.34787906533644 13.27956642378453 129.19489919715002 H 0.0 **** 0.06
16203 H 115.29105527459477 12.056178547085011 129.94016223758518 H 0.0 **** 0.06
16204 H 115.14890078893488 12.415341372786287 128.2028293607562 H 0.0 **** 0.06
16205 H 114.61225887300297 13.613517657466303 129.40616330514226 H 0.0 **** 0.06
16206 C 96.60177119835151 74.18354271020692 99.14570479827452 C 0.0 **** -0.24
16207 H 97.23261845288673 74.43332257022743 98.29190405267084 H 0.0 **** 0.06
16208 H 96.73744958898732 73.13353224508481 99.40300861024687 H 0.0 **** 0.06
16209 H 95.55744503606016 74.36369004296863 98.88908886448306 H 0.0 **** 0.06
16210 H 96.87897351331665 74.80588134401322 99.99625719249485 H 0.0 **** 0.06
16211 C 35.07792955139698 23.3537466823513 121.84375789969401 C 0.0 **** -0.24
16212 H 35.3755877818534 22.359457120096152 122.17789226437183 H 0.0 **** 0.06
16213 H 35.93647916716793 23.861082071688934 121.40429887387135 H 0.0 **** 0.06
16214 H 34.712431770843864 23.928209973960215 122.69513396823523 H 0.0 **** 0.06
16215 H 34.28698458753439 23.264372779971808 121.09927737317464 H 0.0 **** 0.06
16216 C 60.45852501592745 84.88267484688151 90.52527368520597 C 0.0 **** -0.24
16217 H 60.77279882501185 85.87778576368481 90.21219368602027 H 0.0 **** 0.06
16218 H 59.37093711302896 84.81796612725964 90.49272785400974 H 0.0 **** 0.06
16219 H 60.80232239230463 84.69737782171141 91.54266114892263 H 0.0 **** 0.06
16220 H 60.88741934244979 84.13826034821662 89.85554572300677 H 0.0 **** 0.06
16221 C 113.10484237109877 17.49611962724834 86.71892168739808 C 0.0 **** -0.24
16222 H 113.042511506096 17.713822344170765 85.65223038681154 H 0.0 **** 0.06
16223 H 112.70564621905253 18.33798261475451 87.28444271287489 H 0.0 **** 0.06
16224 H 114.14581695165329 17.33273696337605 86.99612898041525 H 0.0 **** 0.06
16225 H 112.525098932597 16.600872637267464 86.9406404481563 H 0.0 **** 0.06
16226 C 35.894148616292036 35.72411107028864 100.53765453456646 C 0.0 **** -0.24
16227 H 36.853076000566006 36.19338726396239 100.31452657731273 H 0.0 **** 0.06
16228 H 36.014967298692085 35.029041939676034 101.369411535609 H 0.0 **** 0.06
16229 H 35.542066392536086 35.183094616253726 99.65998708573352 H 0.0 **** 0.06
16230 H 35.16877599241852 36.4907322174968 100.8075386001018 H 0.0 **** 0.06
16231 C 43.73375681142677 3.8842046797869116 108.51948088005476 C 0.0 **** -0.24
16232 H 44.466713772459215 4.265985606280051 109.23073283755069 H 0.0 **** 0.06
16233 H 42.989844717414314 3.2893513939635532 109.05091415896153 H 0.0 **** 0.06
16234 H 44.236186499000326 3.2612044922936576 107.7789485654291 H 0.0 **** 0.06
16235 H 43.2430585898003 4.719007615893027 108.01993291295848 H 0.0 **** 0.06
16236 C 24.072341610217507 18.87947074140044 52.73122566241064 C 0.0 **** -0.24
16237 H 24.17104360770486 19.84778796988593 52.24090174515317 H 0.0 **** 0.06
16238 H 23.024373724851387 18.70175450962057 52.97514614470043 H 0.0 **** 0.06
16239 H 24.664511382333046 18.874735038433073 53.64665914273438 H 0.0 **** 0.06
16240 H 24.428901938364675 18.095327276656462 52.06351790860907 H 0.0 **** 0.06
16241 C 89.99526630555272 116.81437732753493 107.2584108012868 C 0.0 **** -0.24
16242 H 89.38303916149661 116.32533160453038 106.5011492400863 H 0.0 **** 0.06
16243 H 89.40087586427109 117.56888010244249 107.77353647024154 H 0.0 **** 0.06
16244 H 90.85198296648781 117.28967884849841 106.78102740301387 H 0.0 **** 0.06
16245 H 90.34445440204419 116.07303459996812 107.9775419122887 H 0.0 **** 0.06
16246 C 1.4742189004715804 12.179690045573238 34.96813138402672 C 0.0 **** -0.24
16247 H 1.3298616247822501 13.1515261861257 34.49611402268647 H 0.0 **** 0.06
16248 H 1.066763380388572 11.399240489153698 34.32473848074852 H 0.0 **** 0.06
16249 H 0.9602126495077314 12.163476292526447 35.92961233543713 H 0.0 **** 0.06
16250 H 2.5396339163002573 12.005295635093013 35.122541180395615 H 0.0 **** 0.06
16251 C 7.42891109537101 53.83093166220394 62.69699667133209 C 0.0 **** -0.24
16252 H 8.239765327645241 53.62631309958593 61.99750001077365 H 0.0 **** 0.06
16253 H 7.782462600753547 53.67775850551972 63.71701738117369 H 0.0 **** 0.06
16254 H 6.59718027099801 53.1559421200063 62.4947743730215 H 0.0 **** 0.06
16255 H 7.097601894726981 54.861910797261544 62.57775288460469 H 0.0 **** 0.06
16256 C 85.07701793611324 81.74172051316019 137.58198219066134 C 0.0 **** -0.24
16257 H 84.1302950720519 81.20289777273861 137.58964424328423 H 0.0 **** 0.06
16258 H 85.10066736457492 82.4464336568579 138.41343513771258 H 0.0 **** 0.06
16259 H 85.17920898434107 82.28407095769276 136.64255372708377 H 0.0 **** 0.06
16260 H 85.8985696269321 81.0320609407265 137.6838892265724 H 0.0 **** 0.06
16261 C 33.9677800330349 106.26684210280793 4.678060501941445 C 0.0 **** -0.24
16262 H 33.68241936526006 106.9054097006812 5.514704784429995 H 0.0 **** 0.06
16263 H 33.16154435833664 105.56383452662367 4.466557974893163 H 0.0 **** 0.06
16264 H 34.873233553695684 105.71720437234892 4.9348798449316575 H 0.0 **** 0.06
16265 H 34.15315624379724 106.88290172978763 3.7979661271548935 H 0.0 **** 0.06
16266 C 91.03700211945346 33.534654737024965 88.65779568590801 C 0.0 **** -0.24
16267 H 91.45544586950484 33.76629177947673 87.67813501925599 H 0.0 **** 0.06
16268 H 91.8456360386073 33.313316443351255 89.35465324516974 H 0.0 **** 0.06
16269 H 90.38022742858956 32.66954560804902 88.57651825188691 H 0.0 **** 0.06
16270 H 90.46753206344769 34.39088636284572 89.02134103360856 H 0.0 **** 0.06
16271 C 114.68670092711143 58.86742525651573 123.57069482601469 C 0.0 **** -0.24
16272 H 115.56276473386903 58.60436181443721 124.1633260094661 H 0.0 **** 0.06
16273 H 114.54547451180399 58.12686651471164 122.78332340429178 H 0.0 **** 0.06
16274 H 114.83335522622791 59.85140934556654 123.12329589452013 H 0.0 **** 0.06
16275 H 113.8060726611095 58.88912603550499 124.21284110189707 H 0.0 **** 0.06
16276 C 54.8981331400052 33.295677386509375 18.722845303386123 C 0.0 **** -0.24
16277 H 54.75207967876145 32.239298219275305 18.948680077579752 H 0.0 **** 0.06
16278 H 55.71062832671299 33.40418472651004 18.00334291225431 H 0.0 **** 0.06
16279 H 55.14967801770359 33.8315828671964 19.638523971452457 H 0.0 **** 0.06
16280 H 53.98097723177017 33.70712564126142 18.30103814073891 H 0.0 **** 0.06
16281 C 2.5417483817824404 131.64587627324084 28.008534974846583 C 0.0 **** -0.24
16282 H 3.629375249745152 131.71291209033467 28.051019572443522 H 0.0 **** 0.06
16283 H 2.2520725141905586 130.65616533663817 27.65718472647052 H 0.0 **** 0.06
16284 H 2.1574793345511694 132.40227423913134 27.323587275998335 H 0.0 **** 0.06
16285 H 2.1289323155262707 131.81345830392027 29.003944493065035 H 0.0 **** 0.06
16286 C 135.7347173131885 71.52739238701108 29.851303463286797 C 0.0 **** -0.24
16287 H 135.34610903991558 72.54164841432876 29.76464793959103 H 0.0 **** 0.06
16288 H 136.3808340949751 71.45954325870366 30.72713423590463 H 0.0 **** 0.06
16289 H 136.3058765100495 71.27891552053518 28.95631108722688 H 0.0 **** 0.06
16290 H 134.90367068150402 70.82933712521142 29.957690931844553 H 0.0 **** 0.06
16291 C 74.1319004852567 53.25408118647297 107.87916120123836 C 0.0 **** -0.24
16292 H 74.98201738080482 53.424343202474745 107.21850091883343 H 0.0 **** 0.06
16293 H 73.97616923913068 54.1338953142739 108.50324353786388 H 0.0 **** 0.06
16294 H 74.33144254100873 52.39004940715087 108.51147035417304 H 0.0 **** 0.06
16295 H 73.2392365396204 53.06929896827448 107.28208458819515 H 0.0 **** 0.06
16296 C 94.80496917827571 73.11642674092158 49.66245382750256 C 0.0 **** -0.24
16297 H 95.15626329762412 74.1309426064029 49.472248863015366 H 0.0 **** 0.06
16298 H 94.04023587362511 73.13572988473916 50.43918626233324 H 0.0 **** 0.06
16299 H 95.64061341394367 72.49844295765357 49.98982612289633 H 0.0 **** 0.06
16300 H 94.38284786097668 72.70188025168358 48.74672858520756 H 0.0 **** 0.06
16301 C 84.23261525351373 89.21565953656796 28.60602684091944 C 0.0 **** -0.24
16302 H 83.46303255442334 89.40454209690904 27.85698226055247 H 0.0 **** 0.06
16303 H 84.95282026577789 88.49766025880547 28.213364534413813 H 0.0 **** 0.06
16304 H 83.77175586535097 88.8139114096333 29.507857711499753 H 0.0 **** 0.06
16305 H 84.74387062739865 90.14939796972749 28.843733487189212 H 0.0 **** 0.06
16306 C 80.48659622247447 112.790540212402 17.674238083887218 C 0.0 **** -0.24
16307 H 80.59045464520108 111.86306545935457 17.110520125821523 H 0.0 **** 0.06
16308 H 80.06953522111047 113.56359051078965 17.027683122364834 H 0.0 **** 0.06
16309 H 81.4652002917075 113.10703914563061 18.035375736539407 H 0.0 **** 0.06
16310 H 79.82195535906061 112.62705642998003 18.52271347205749 H 0.0 **** 0.06
16311 C 86.83815984025685 58.24164962569645 103.72629788224495 C 0.0 **** -0.24
16312 H 86.31883065396832 59.06861320563178 103.24308127961906 H 0.0 **** 0.06
16313 H 87.70190526644143 58.623187207648584 104.27216863089339 H 0.0 **** 0.06
16314 H 87.17041818493131 57.52953614606095 102.9708353177904 H 0.0 **** 0.06
16315 H 86.16110708062365 57.74379098407137 104.42074748334622 H 0.0 **** 0.06
16316 C 28.00013936076403 89.19063727871038 11.218120350483908 C 0.0 **** -0.24
16317 H 27.534166779930224 88.25421508012118 11.52261313611875 H 0.0 **** 0.06
16318 H 28.519195180057025 89.0471715904445 10.269894325618402 H 0.0 **** 0.06
16319 H 28.714508882335245 89.5052471270424 11.979389526506154 H 0.0 **** 0.06
16320 H 27.23357296754144 89.95670867258862 11.10134928526719 H 0.0 **** 0.06
16321 C 102.6110426237878 92.93359714501732 123.6519235846404 C 0.0 **** -0.24
16322 H 102.27967597902008 93.37420862104776 124.5918361011567 H 0.0 **** 0.06
16323 H 102.41182553106441 93.6274922667029 122.83495355519509 H 0.0 **** 0.06
16324 H 102.07257296739502 92.00184487898352 123.47790906512878 H 0.0 **** 0.06
16325 H 103.68083021215958 92.73055285793781 123.70360956170671 H 0.0 **** 0.06
16326 C 120.56581783886014 123.80418770490473 46.60879278685235 C 0.0 **** -0.24
16327 H 120.09711320387328 124.61358785103249 47.16865015403596 H 0.0 **** 0.06
16328 H 121.11732003199256 124.2184143622862 45.7651586982135 H 0.0 **** 0.06
16329 H 119.79696929987864 123.12435689238643 46.24161178564623 H 0.0 **** 0.06
16330 H 121.25100552721631 123.26084436331635 47.25997384400404 H 0.0 **** 0.06
16331 C 9.608899072894019 136.70917023044944 111.23437336689277 C 0.0 **** -0.24
16332 H 9.415148962318654 135.69427491461536 110.88524681756813 H 0.0 **** 0.06
16333 H 9.021456804246611 137.41327049338867 110.64392323588997 H 0.0 **** 0.06
16334 H 10.66836935841269 136.9352160588716 111.12212449277781 H 0.0 **** 0.06
16335 H 9.328106602622086 136.791866946094 112.28433752748363 H 0.0 **** 0.06
16336 C 36.18274062897231 61.28098272216522 12.26194523553039 C 0.0 **** -0.24
16337 H 35.18327708242023 61.01293324100976 11.919041455319864 H 0.0 **** 0.06
16338 H 36.752406270074715 60.37434913896254 12.467431310252621 H 0.0 **** 0.06
16339 H 36.10626132092446 61.876649144750445 13.172155305034622 H 0.0 **** 0.06
16340 H 36.68866627892757 61.861032437933375 11.490052453950575 H 0.0 **** 0.06
16341 C 2.6064601894369446 140.26388808454308 129.11625919663456 C 0.0 **** -0.24
16342 H 3.6733300938676585 140.2475611120549 129.34014299514152 H 0.0 **** 0.06
16343 H 2.459628716942021 140.5136895922165 128.0656395666064 H 0.0 **** 0.06
16344 H 2.1158034615968333 141.01102692549142 129.74037812833356 H 0.0 **** 0.06
16345 H 2.177424701465 139.28182910848054 129.31976520066186 H 0.0 **** 0.06
16346 C 123.38882562190516 92.83709770751531 18.903094129754948 C 0.0 **** -0.24
16347 H 123.53686293129883 93.84502761204405 18.51464569505532 H 0.0 **** 0.06
16348 H 123.84149425752338 92.75886311889732 19.892152471169197 H 0.0 **** 0.06
16349 H 123.85556024725892 92.11720138823958 18.231379205062808 H 0.0 **** 0.06
16350 H 122.32182812211137 92.62864016826805 18.974133818491964 H 0.0 **** 0.06
16351 C 118.62665767192992 68.12852317534403 81.92561283758445 C 0.0 **** -0.24
16352 H 119.01364999556243 68.12194391276077 80.90572282720133 H 0.0 **** 0.06
16353 H 117.9050383701531 68.9383071068945 82.03557412447667 H 0.0 **** 0.06
16354 H 119.44958786708973 68.27597598901326 82.62447722069221 H 0.0 **** 0.06
16355 H 118.13897076975799 67.17578524836374 82.13379751215173 H 0.0 **** 0.06
16356 C 22.846235974959157 32.64472134475804 3.4221540657420064 C 0.0 **** -0.24
16357 H 22.769154715184968 31.566980684408534 3.2737003486760727 H 0.0 **** 0.06
16358 H 22.216218637946895 33.15687794051855 2.695360666883346 H 0.0 **** 0.06
16359 H 23.88240199623192 32.95592444292993 3.288638097736225 H 0.0 **** 0.06
16360 H 22.518367062378104 32.89636709935636 4.43062978464684 H 0.0 **** 0.06
16361 C 123.12507563822348 93.7956613065 127.46418973868205 C 0.0 **** -0.24
16362 H 123.6681196329688 94.01446661026546 128.38391436043327 H 0.0 **** 0.06
16363 H 123.82146116544531 93.78664892184477 126.62526548553666 H 0.0 **** 0.06
16364 H 122.36743373624613 94.5613210251231 127.29880891020673 H 0.0 **** 0.06
16365 H 122.64575990203237 92.82116485928623 127.54975804450734 H 0.0 **** 0.06
16366 C 108.63111012581898 87.10868867596676 134.2039339008845 C 0.0 **** -0.24
16367 H 108.70134726135431 86.27437851100237 133.50553414503648 H 0.0 **** 0.06
16368 H 109.63137312304461 87.48100332551587 134.42616048158126 H 0.0 **** 0.06
16369 H 108.15535506648258 86.77141465305851 135.12546594401059 H 0.0 **** 0.06
16370 H 108.0361967739474 87.90572974650595 133.7586514011539 H 0.0 **** 0.06
16371 C 41.92308985489238 115.20395507151039 9.861487132673489 C 0.0 **** -0.24
16372 H 41.22876105188864 114.37664427924506 9.718608819405603 H 0.0 **** 0.06
16373 H 42.82340813624762 114.84056534701915 10.35759178381349 H 0.0 **** 0.06
16374 H 41.452454655536044 115.97047605639938 10.476351298097427 H 0.0 **** 0.06
16375 H 42.187216230849714 115.62758181786398 8.892744898928186 H 0.0 **** 0.06
16376 C 104.45024934146029 116.60410724942561 44.3820685912946 C 0.0 **** -0.24
16377 H 104.49527176091854 115.77345996941234 45.08631000449445 H 0.0 **** 0.06
16378 H 103.47726237953678 117.09015881305113 44.45584635582104 H 0.0 **** 0.06
16379 H 104.59378843708177 116.22893632310657 43.368656921860094 H 0.0 **** 0.06
16380 H 105.23422235976979 117.32408346890635 44.61832793343932 H 0.0 **** 0.06
16381 C 105.17996658028123 103.34828802509398 66.23387215842388 C 0.0 **** -0.24
16382 H 105.7964293524267 102.74436411894331 66.89946696602746 H 0.0 **** 0.06
16383 H 105.00211503764808 104.3226070483866 66.68887892742205 H 0.0 **** 0.06
16384 H 104.22729859145721 102.84463293403726 66.06669202674797 H 0.0 **** 0.06
16385 H 105.6937510832385 103.47900361584655 65.28201672241855 H 0.0 **** 0.06
16386 C 97.96066263141579 135.85126015035513 66.29221501624563 C 0.0 **** -0.24
16387 H 98.00811354255147 134.77566546762768 66.12252594976124 H 0.0 **** 0.06
16388 H 98.6453480630392 136.12230686437687 67.09669714402392 H 0.0 **** 0.06
16389 H 96.94470545688428 136.13122962707547 66.56923662675217 H 0.0 **** 0.06
16390 H 98.24547012895839 136.37586657852464 65.38023986419917 H 0.0 **** 0.06
16391 C 6.863569442964916 39.42212451749754 55.425821045433594 C 0.0 **** -0.24
16392 H 5.946201664466344 38.956542788438526 55.06695635535414 H 0.0 **** 0.06
16393 H 6.633304987711284 40.400096885795136 55.84979542216246 H 0.0 **** 0.06
16394 H 7.559564111830582 39.5408575769323 54.594970993264894 H 0.0 **** 0.06
16395 H 7.315207007851342 38.791000818824074 56.19156141095311 H 0.0 **** 0.06
16396 C 19.382520843186285 2.3162764899170725 65.82309716229425 C 0.0 **** -0.24
16397 H 20.29844327058487 1.86953906492883 66.20920809618138 H 0.0 **** 0.06
16398 H 18.52259823888238 1.8715341205567029 66.32556438240161 H 0.0 **** 0.06
16399 H 19.31202807159201 2.1317678095113024 64.75134476861112 H 0.0 **** 0.06
16400 H 19.396377643631524 3.390489661171074 66.00783469185569 H 0.0 **** 0.06
16401 C 64.20025975755078 108.47813742412472 121.22716707706748 C 0.0 **** -0.24
16402 H 63.97259351962556 108.7438894671277 122.25996080118507 H 0.0 **** 0.06
16403 H 63.34109959370949 108.70686286193188 120.59598848396142 H 0.0 **** 0.06
16404 H 64.42222033763431 107.41259177143058 121.16694360044714 H 0.0 **** 0.06
16405 H 65.06456211220166 109.04951046723374 120.88767008179276 H 0.0 **** 0.06
16406 C 22.204905581052316 44.8966174449107 135.44776885893114 C 0.0 **** -0.24
16407 H 21.70524498822664 45.20732989245539 136.3653629777092 H 0.0 **** 0.06
16408 H 22.256473961949013 43.808948360596006 135.41297649262188 H 0.0 **** 0.06
16409 H 23.213200599387193 45.309715762130594 135.42561441190898 H 0.0 **** 0.06
16410 H 21.64387250445705 45.2619835582405 134.58692831690266 H 0.0 **** 0.06
16411 C 82.25446466861098 38.633993016878215 59.19263116369024 C 0.0 **** -0.24
16412 H 82.31116354562252 37.70507715958244 59.759744421334474 H 0.0 **** 0.06
16413 H 81.41642808965909 38.5848285287592 58.497344572584126 H 0.0 **** 0.06
16414 H 83.18145196212092 38.77674878807064 58.63647715377674 H 0.0 **** 0.06
16415 H 82.10908255049515 39.469793697058165 59.87779625687956 H 0.0 **** 0.06
16416 C 3.092278966816991 9.238450666183752 106.88662980981682 C 0.0 **** -0.24
16417 H 3.014975870241784 9.856661350899543 107.78097743423207 H 0.0 **** 0.06
16418 H 2.5908248676863934 8.28528248467319 107.05994219984576 H 0.0 **** 0.06
16419 H 4.142929059553381 9.06046718868106 106.65770372092238 H 0.0 **** 0.06
16420 H 2.6197651595833804 9.751705082120424 106.04912727056806 H 0.0 **** 0.06
16421 C 26.651321536330528 116.91214552018555 80.17880518318866 C 0.0 **** -0.24
16422 H 26.033349753417752 116.90558965984597 79.28060096427419 H 0.0 **** 0.06
16423 H 27.6733870870232 116.6367084430939 79.91769343017775 H 0.0 **** 0.06
16424 H 26.25450746798711 116.1957976096791 80.89808757382805 H 0.0 **** 0.06
16425 H 26.64416296040264 117.91005937035355 80.61749597284364 H 0.0 **** 0.06
16426 C 67.57574379983646 129.93672914190435 34.11104529911812 C 0.0 **** -0.24
16427 H 66.64947899420221 130.50696995665152 34.18375591514865 H 0.0 **** 0.06
16428 H 68.17076789132642 130.31452607916125 33.278640487643116 H 0.0 **** 0.06
16429 H 67.34156276020121 128.88499265405366 33.94400179640638 H 0.0 **** 0.06
16430 H 68.13941683621329 130.04083515300633 35.03866406993862 H 0.0 **** 0.06
16431 C 126.22347182920754 109.70854599805766 109.58367017711652 C 0.0 **** -0.24
16432 H 126.83063358337296 109.18155798093231 108.84874769186314 H 0.0 **** 0.06
16433 H 126.576483695545 109.46906831777422 110.58673446189891 H 0.0 **** 0.06
16434 H 125.18195880241359 109.40144177695463 109.48155960278643 H 0.0 **** 0.06
16435 H 126.30288736189954 110.78278530962005 109.41627847942237 H 0.0 **** 0.06
16436 C 142.39370101982567 13.153676815813185 75.40373371257434 C 0.0 **** -0.24
16437 H 141.73450235866537 13.817206453374354 74.84443913833837 H 0.0 **** 0.06
16438 H 142.00246328070858 12.137612552518249 75.36713748913954 H 0.0 **** 0.06
16439 H 142.4484115722044 13.486233679814575 76.44021698527523 H 0.0 **** 0.06
16440 H 143.39009385711412 13.175899016778544 74.96242159890241 H 0.0 **** 0.06
16441 C 128.11315850325596 21.996890375863813 103.27888627306726 C 0.0 **** -0.24
16442 H 128.60437951164383 22.929608567940875 103.55541036805624 H 0.0 **** 0.06
16443 H 128.4197980167086 21.70975891303408 102.27314643437369 H 0.0 **** 0.06
16444 H 127.03248941452873 22.133603054590992 103.30537821159383 H 0.0 **** 0.06
16445 H 128.39802499288024 21.214085661023148 103.9823241072271 H 0.0 **** 0.06
16446 C 100.24612868896972 61.04245287808938 48.015779249352335 C 0.0 **** -0.24
16447 H 100.32863157309461 62.128592208891675 48.05593551036573 H 0.0 **** 0.06
16448 H 101.23002301344945 60.61014736921089 47.83133999411952 H 0.0 **** 0.06
16449 H 99.56778213763397 60.75939311030429 47.210540125793145 H 0.0 **** 0.06
16450 H 99.85830921193713 60.672648477570846 48.96522154709815 H 0.0 **** 0.06
16451 C 71.51867357652355 9.85476341357699 90.57042774805123 C 0.0 **** -0.24
16452 H 70.79098293333078 10.409154331317922 91.16383399538779 H 0.0 **** 0.06
16453 H 71.71699161795246 8.893965063728587 91.04600046065343 H 0.0 **** 0.06
16454 H 72.4443571708104 10.425573830747908 90.50359806085936 H 0.0 **** 0.06
16455 H 71.1203910639853 9.690171739778322 89.56931661007461 H 0.0 **** 0.06
16456 C 25.770843184593318 128.5498962670542 140.7179807200567 C 0.0 **** -0.24
16457 H 25.80814036739119 128.86172507448424 139.67468758427665 H 0.0 **** 0.06
16458 H 26.771656781613416 128.27118852361423 141.04931299617311 H 0.0 **** 0.06
16459 H 25.102756912517464 127.69461443929656 140.8187310053567 H 0.0 **** 0.06
16460 H 25.40150676794616 129.37350036583229 141.32985721163635 H 0.0 **** 0.06
16461 C 129.79444598762282 27.57651299329092 66.76239742168794 C 0.0 **** -0.24
16462 H 129.86806524469588 27.373514085373785 67.83109034874374 H 0.0 **** 0.06
16463 H 130.0164020225457 26.666873512691467 66.20431818638482 H 0.0 **** 0.06
16464 H 130.50979608902642 28.35317175272459 66.49087702821701 H 0.0 **** 0.06
16465 H 128.78497060593267 27.911744265738946 66.52513105812896 H 0.0 **** 0.06
16466 C 139.68196334270866 75.93405378901379 20.738170503736768 C 0.0 **** -0.24
16467 H 139.72117418786112 76.23744357908812 19.69166772320775 H 0.0 **** 0.06
16468 H 138.64147262582537 75.84818601890318 21.053031958241043 H 0.0 **** 0.06
16469 H 140.18729781569712 76.67983351600412 21.35180847976494 H 0.0 **** 0.06
16470 H 140.17843371363625 74.97107208344318 20.855385170400133 H 0.0 **** 0.06
16471 C 122.94737062525576 113.44006112960473 123.479485969957 C 0.0 **** -0.24
16472 H 122.59411765208802 112.5528534056201 122.95463488924264 H 0.0 **** 0.06
16473 H 123.45963191463062 113.14138034237054 124.39367359992175 H 0.0 **** 0.06
16474 H 122.09846081876486 114.07562133153097 123.72990607961931 H 0.0 **** 0.06
16475 H 123.63666424540989 113.989823884117 122.83917191946038 H 0.0 **** 0.06
16476 C 36.41252219507612 115.72965301503791 135.63736680155196 C 0.0 **** -0.24
16477 H 35.573810226658225 115.05634007147273 135.81521174588212 H 0.0 **** 0.06
16478 H 37.15193367372689 115.22986358369303 135.010507849506 H 0.0 **** 0.06
16479 H 36.867643154457994 116.00231447297813 136.58964908515034 H 0.0 **** 0.06
16480 H 36.056170265042624 116.62820349093653 135.13447794246892 H 0.0 **** 0.06
16481 C 132.72659497375176 62.98809038972355 121.31906752767945 C 0.0 **** -0.24
16482 H 133.25957920120706 63.9345744995352 121.39415033353647 H 0.0 **** 0.06
16483 H 132.05454119231774 63.01596903554814 120.4606827404967 H 0.0 **** 0.06
16484 H 132.14816839689684 62.82409178514875 122.22821110571782 H 0.0 **** 0.06
16485 H 133.4434070325262 62.17648959381779 121.19317261764608 H 0.0 **** 0.06
16486 C 38.94535986927073 114.64398944280465 113.16430478978178 C 0.0 **** -0.24
16487 H 39.769861400347 114.28536809183917 113.7807120090731 H 0.0 **** 0.06
16488 H 39.25682715696047 115.53965112783355 112.62743223249517 H 0.0 **** 0.06
16489 H 38.092416293961406 114.87886498077005 113.7999907008142 H 0.0 **** 0.06
16490 H 38.664033333363435 113.87070323411452 112.4485976075534 H 0.0 **** 0.06
16491 C 7.183880932445078 4.7183275888084495 5.909121224583487 C 0.0 **** -0.24
16492 H 7.249779654606442 4.275555567908157 4.915541751182246 H 0.0 **** 0.06
16493 H 7.048798685716974 3.9300172686124597 6.649983250854746 H 0.0 **** 0.06
16494 H 6.335035515680914 5.4020935979721685 5.946477071672035 H 0.0 **** 0.06
16495 H 8.101553711487895 5.266060644137951 6.123646443302107 H 0.0 **** 0.06
16496 C 50.64730271027895 7.336329320929224 7.135394394997078 C 0.0 **** -0.24
16497 H 50.960606041053666 8.07932192005535 7.8686514485141466 H 0.0 **** 0.06
16498 H 49.60229059782631 7.502480723958627 6.8734701703684635 H 0.0 **** 0.06
16499 H 50.7626553950098 6.338548186049536 7.558099300842038 H 0.0 **** 0.06
16500 H 51.264781587145194 7.425725494918765 6.241760775314791 H 0.0 **** 0.06
16501 C 141.80239558510908 123.59264200825123 57.34741622337582 C 0.0 **** -0.24
16502 H 141.60762146971916 124.23783962005616 56.49069632412768 H 0.0 **** 0.06
16503 H 140.85895991932637 123.32754251367594 57.8249183804883 H 0.0 **** 0.06
16504 H 142.43621763794846 124.11893118741834 58.06169364610345 H 0.0 **** 0.06
16505 H 142.30803621831464 122.68690057738017 57.01224176270057 H 0.0 **** 0.06
16506 C 25.589686645235076 40.058440877763786 106.53456890081932 C 0.0 **** -0.24
16507 H 24.847109493228857 39.34833310964865 106.89972923178377 H 0.0 **** 0.06
16508 H 25.99759086175129 39.70179450604333 105.58838105216577 H 0.0 **** 0.06
16509 H 26.393369397852894 40.14963773982004 107.26520907216056 H 0.0 **** 0.06
16510 H 25.12128995138943 41.031122264174144 106.38555099233318 H 0.0 **** 0.06
16511 C 77.76758359065417 90.9454700112104 127.52646057291304 C 0.0 **** -0.24
16512 H 77.31013535088329 91.12648969172963 126.55385074620364 H 0.0 **** 0.06
16513 H 78.80585075391855 90.64415208277407 127.3895859042108 H 0.0 **** 0.06
16514 H 77.22352983822776 90.1539824884434 128.04208245122572 H 0.0 **** 0.06
16515 H 77.72843671078061 91.85894447027016 128.1210132536812 H 0.0 **** 0.06
16516 C 94.6304946339472 85.6180525890515 0.3731219030484567 C 0.0 **** -0.24
16517 H 94.6202590766874 84.72933681630991 1.0051191017548717 H 0.0 **** 0.06
16518 H 93.90637808779795 85.49888067285809 -0.43253196651983217 H 0.0 **** 0.06
16519 H 95.62660634969896 85.75040478977462 -0.04941478110100661 H 0.0 **** 0.06
16520 H 94.37063212393642 86.49171527614851 0.9710164504492127 H 0.0 **** 0.06
16521 C 14.77167301827697 120.1087377561983 52.321228927586375 C 0.0 **** -0.24
16522 H 14.799734839256729 121.15302530212595 52.010119698363894 H 0.0 **** 0.06
16523 H 15.770216597788988 119.67894431912082 52.241666251592264 H 0.0 **** 0.06
16524 H 14.085771927574712 119.55665826534833 51.67730043440922 H 0.0 **** 0.06
16525 H 14.430185534459554 120.04705847438105 53.35386816878342 H 0.0 **** 0.06
16526 C 57.43879068832766 46.80943443344725 87.62338782271715 C 0.0 **** -0.24
16527 H 57.17971925794615 46.034216383822894 88.34357099846027 H 0.0 **** 0.06
16528 H 58.4700613345513 47.12296007108941 87.78277535906061 H 0.0 **** 0.06
16529 H 56.77405967612624 47.66371226443053 87.7543343615023 H 0.0 **** 0.06
16530 H 57.33020538257374 46.41598447335491 86.61280173192822 H 0.0 **** 0.06
16531 C 24.386148714950608 84.18616542507218 116.11519302331911 C 0.0 **** -0.24
16532 H 23.96125082768183 83.61955388262399 115.28760981242502 H 0.0 **** 0.06
16533 H 25.458831640148063 83.9961927496179 116.17144868654756 H 0.0 **** 0.06
16534 H 23.91315511568544 83.87715760874431 117.04798462578461 H 0.0 **** 0.06
16535 H 24.21381533965588 85.2501164123469 115.95553601405018 H 0.0 **** 0.06
16536 C 138.74086659334915 138.48629908155743 1.2778644344784311 C 0.0 **** -0.24
16537 H 138.45970494420783 137.43578813133323 1.3400632823287708 H 0.0 **** 0.06
16538 H 139.02778028251873 138.84392967386964 2.267974982458867 H 0.0 **** 0.06
16539 H 137.8939543659073 139.06826988644661 0.9130211810660853 H 0.0 **** 0.06
16540 H 139.58034626053197 138.5986888498785 0.5933958620711337 H 0.0 **** 0.06
16541 C 142.40147485381812 36.66832359159602 46.88085035922627 C 0.0 **** -0.24
16542 H 143.17092373102238 37.43542890656713 46.97186567328811 H 0.0 **** 0.06
16543 H 141.41983532466492 37.14080757435063 46.84929712847972 H 0.0 **** 0.06
16544 H 142.4541652721805 35.99714409057437 47.73771129658648 H 0.0 **** 0.06
16545 H 142.56164161971455 36.10096600668257 45.96385750842947 H 0.0 **** 0.06
16546 C 77.13690981518181 55.84105110950624 142.37904198849915 C 0.0 **** -0.24
16547 H 76.05719307959356 55.74265305415021 142.49001259789353 H 0.0 **** 0.06
16548 H 77.56841448914781 54.86862268800638 142.14100082779524 H 0.0 **** 0.06
16549 H 77.56480759000391 56.21107044257408 143.31117455307034 H 0.0 **** 0.06
16550 H 77.3564398483582 56.543645416762104 141.57507140155354 H 0.0 **** 0.06
16551 C 14.486088347087986 40.1036013873005 93.84836354358808 C 0.0 **** -0.24
16552 H 14.264874256806507 40.79936954119411 93.03887549096439 H 0.0 **** 0.06
16553 H 13.554086369619057 39.704741271270606 94.24796307742413 H 0.0 **** 0.06
16554 H 15.027965383658199 40.6246287517036 94.63701594752492 H 0.0 **** 0.06
16555 H 15.098263251825443 39.286403765195445 93.46550603142796 H 0.0 **** 0.06
16556 C 29.65627465584015 11.878882969815969 65.36324021960036 C 0.0 **** -0.24
16557 H 30.516726574630873 12.396668068879023 64.94024500384481 H 0.0 **** 0.06
16558 H 29.51811459259232 10.926143026010784 64.85185063975712 H 0.0 **** 0.06
16559 H 28.764159623326954 12.492901867706998 65.23593153324703 H 0.0 **** 0.06
16560 H 29.826175409116914 11.700757222595577 66.425270758793 H 0.0 **** 0.06
16561 C 105.13229415789256 1.043501398656474 142.23107650747005 C 0.0 **** -0.24
16562 H 106.07946693049011 0.9119937946554728 142.75450883249874 H 0.0 **** 0.06
16563 H 105.29969067596706 0.977450347447359 141.15546290846146 H 0.0 **** 0.06
16564 H 104.71547642078913 2.0198866501527846 142.4749384409629 H 0.0 **** 0.06
16565 H 104.436693198024 0.26414836566243594 142.5397089446509 H 0.0 **** 0.06
16566 C 56.879898569527214 67.65275173801447 38.97981491917738 C 0.0 **** -0.24
16567 H 56.65440001418415 68.59880109574001 39.47081579491443 H 0.0 **** 0.06
16568 H 57.94332315440347 67.60948002421833 38.74388776781649 H 0.0 **** 0.06
16569 H 56.3001367079965 67.5736683160683 38.06045216649196 H 0.0 **** 0.06
16570 H 56.62091849393636 66.82802472885615 39.64462137653656 H 0.0 **** 0.06
16571 C 130.4577017623331 80.35377563279087 133.88238799159367 C 0.0 **** -0.24
16572 H 129.6557434604147 80.26054077225199 134.61509329710316 H 0.0 **** 0.06
16573 H 130.16732618787202 81.07304405006963 133.11675893311417 H 0.0 **** 0.06
16574 H 130.64087209602144 79.38381876834882 133.4200437393265 H 0.0 **** 0.06
16575 H 131.3648071628221 80.69721293797848 134.3795343476204 H 0.0 **** 0.06
16576 C 118.7928085551626 41.908724706222415 57.286354137026066 C 0.0 **** -0.24
16577 H 119.82744297921067 41.617861251048225 57.10858211166506 H 0.0 **** 0.06
16578 H 118.55002353432656 41.76383396360336 58.339011250905585 H 0.0 **** 0.06
16579 H 118.13284555975355 41.29604323485182 56.67263829659154 H 0.0 **** 0.06
16580 H 118.66085770125 42.959395332176086 57.02515274462874 H 0.0 **** 0.06
16581 C 45.25974780991129 142.613222067674 3.4403371028816707 C 0.0 **** -0.24
16582 H 44.487937759046474 142.22583311427303 4.105021176075326 H 0.0 **** 0.06
16583 H 45.54800494784767 141.8395271932135 2.728577333979473 H 0.0 **** 0.06
16584 H 46.12973467020764 142.90880826857529 4.027721651647909 H 0.0 **** 0.06
16585 H 44.87427924033203 143.47887291777982 2.901458179696135 H 0.0 **** 0.06
16586 C 109.7385594355127 29.829882910696796 61.89191028134857 C 0.0 **** -0.24
16587 H 109.13397108204039 30.696738750354058 61.62430835076864 H 0.0 **** 0.06
16588 H 109.6484377091602 29.070205156192984 61.1160741912211 H 0.0 **** 0.06
16589 H 109.39080273716213 29.423830503916236 62.842064289980414 H 0.0 **** 0.06
16590 H 110.78260760895076 30.13201228275483 61.98614531774709 H 0.0 **** 0.06
16591 C 5.380458560622326 62.60715979141909 107.59139650385981 C 0.0 **** -0.24
16592 H 5.8435793053683405 63.24714387613379 106.84146292558842 H 0.0 **** 0.06
16593 H 5.065873105733651 61.67260534768661 107.12812786645543 H 0.0 **** 0.06
16594 H 4.5126924810508555 63.1135528850761 108.01493043895437 H 0.0 **** 0.06
16595 H 6.099984410360367 62.396256625084234 108.3833159165581 H 0.0 **** 0.06
16596 C 85.16116697542225 141.34065628498223 18.07417223324343 C 0.0 **** -0.24
16597 H 84.52576588339755 140.58731339835742 18.53924300179463 H 0.0 **** 0.06
16598 H 86.20676734034416 141.10557878884885 18.270865664755775 H 0.0 **** 0.06
16599 H 84.92486029565353 142.32055045808275 18.488299549725355 H 0.0 **** 0.06
16600 H 84.98603298822255 141.3495236234761 16.998866087726185 H 0.0 **** 0.06
16601 C 9.417288644388691 25.518450505950312 32.884932656359155 C 0.0 **** -0.24
16602 H 8.428658625050758 25.849595699229468 33.20025371674217 H 0.0 **** 0.06
16603 H 10.059720552525363 25.409917543838816 33.759188778669795 H 0.0 **** 0.06
16604 H 9.848610790611446 26.254523330939293 32.20620449509653 H 0.0 **** 0.06
16605 H 9.332958010967758 24.55868497504718 32.374534384954615 H 0.0 **** 0.06
16606 C 97.13019699288199 13.7760679037509 66.64999669846001 C 0.0 **** -0.24
16607 H 97.54696370621083 13.250735637763846 67.50998592137188 H 0.0 **** 0.06
16608 H 97.27494834676051 14.84970956863664 66.77570499883329 H 0.0 **** 0.06
16609 H 96.06462814832369 13.55912843771138 66.5742853541103 H 0.0 **** 0.06
16610 H 97.63361451021228 13.444794133701812 65.74294141147051 H 0.0 **** 0.06
16611 C 92.42660165869063 120.41089719914773 141.73561633397807 C 0.0 **** -0.24
16612 H 91.86255635468594 119.71841861627753 142.36075889378415 H 0.0 **** 0.06
16613 H 91.80305179139253 121.27218899638156 141.49498400316182 H 0.0 **** 0.06
16614 H 92.72468100335094 119.90899088292666 140.81503844167284 H 0.0 **** 0.06
16615 H 93.31477942094654 120.74340196541512 142.2726132851802 H 0.0 **** 0.06
16616 C 12.760468922605838 23.80883684151047 37.078686056949074 C 0.0 **** -0.24
16617 H 12.507233787556856 23.42592729271604 38.0666299230257 H 0.0 **** 0.06
16618 H 12.305886763520164 23.175524583475635 36.31537770517066 H 0.0 **** 0.06
16619 H 13.84412808158666 23.806726631260233 36.954233876645866 H 0.0 **** 0.06
16620 H 12.385745221018766 24.827066834963716 36.97718384723878 H 0.0 **** 0.06
16621 C 56.77929434712824 138.2018244428518 99.72694806561906 C 0.0 **** -0.24
16622 H 56.93318154084744 137.33695786221995 100.37142877047809 H 0.0 **** 0.06
16623 H 57.17608065085301 139.09289095303555 100.21382691806372 H 0.0 **** 0.06
16624 H 55.71258775013007 138.3329856050307 99.54202718380377 H 0.0 **** 0.06
16625 H 57.295337881622515 138.04503433566973 98.77921557595506 H 0.0 **** 0.06
16626 C 102.15519846689148 105.81797625247958 109.28947278547378 C 0.0 **** -0.24
16627 H 101.65221197098128 106.7612877959545 109.07853966967298 H 0.0 **** 0.06
16628 H 103.23125812164781 105.98567389647548 109.34871870255625 H 0.0 **** 0.06
16629 H 101.94145771846337 105.10642307618389 108.49161635319768 H 0.0 **** 0.06
16630 H 101.79643555815937 105.41885039661912 110.23776471655918 H 0.0 **** 0.06
16631 C 103.70903615968808 90.1374255187826 121.4989917638987 C 0.0 **** -0.24
16632 H 102.76781063370615 89.60988489353647 121.65404756253737 H 0.0 **** 0.06
16633 H 104.53443150915462 89.5193438367576 121.85079199495645 H 0.0 **** 0.06
16634 H 103.69453805737422 91.07606559921166 122.05457576353426 H 0.0 **** 0.06
16635 H 103.83806718060495 90.34707137461473 120.43702353500059 H 0.0 **** 0.06
16636 C 101.4881500124396 74.29085483544779 1.7166718643069316 C 0.0 **** -0.24
16637 H 102.50439829335048 74.53387539380518 2.027968127341609 H 0.0 **** 0.06
16638 H 101.38471174315795 74.46676261461846 0.6452149392432034 H 0.0 **** 0.06
16639 H 100.78289913790648 74.9198228656991 2.25836665246473 H 0.0 **** 0.06
16640 H 101.28232071082996 73.24261822464712 1.9337621938181258 H 0.0 **** 0.06
16641 C 111.13461322079394 131.77267561013798 52.566024716332834 C 0.0 **** -0.24
16642 H 111.28807728691538 131.99460587166442 53.62295504262434 H 0.0 **** 0.06
16643 H 112.09940501105427 131.60959990314393 52.0859611769408 H 0.0 **** 0.06
16644 H 110.62718944591097 132.61165608473777 52.08946434375801 H 0.0 **** 0.06
16645 H 110.52310308477178 130.87610036502696 52.46871056984173 H 0.0 **** 0.06
16646 C 109.03029228980404 98.94001317248835 90.77968191049158 C 0.0 **** -0.24
16647 H 108.07543156009689 98.5432842710943 90.43515027003501 H 0.0 **** 0.06
16648 H 109.79541574491321 98.16808807504756 90.69864717883628 H 0.0 **** 0.06
16649 H 108.93827829639037 99.25314791446716 91.82071315368897 H 0.0 **** 0.06
16650 H 109.31017890586452 99.79664890030428 90.16628512036098 H 0.0 **** 0.06
16651 C 142.81099886016617 62.30384958886577 33.84894735876201 C 0.0 **** -0.24
16652 H 142.12588157487298 62.134423169232036 34.67871529305302 H 0.0 **** 0.06
16653 H 142.26772971095482 62.74923421431403 33.0149281103052 H 0.0 **** 0.06
16654 H 143.24339752327978 61.35456771713436 33.53511754075463 H 0.0 **** 0.06
16655 H 143.6065438623351 62.97835246449807 34.16638544565877 H 0.0 **** 0.06
16656 C 67.93747252151223 5.567858518420913 11.857953450521677 C 0.0 **** -0.24
16657 H 67.27884005431434 6.185797432345407 11.24722790551698 H 0.0 **** 0.06
16658 H 68.5842696585436 6.208660739962809 12.456808901325076 H 0.0 **** 0.06
16659 H 68.54647318242468 4.93811163452833 11.210070810769253 H 0.0 **** 0.06
16660 H 67.33744756207122 4.9399126396275435 12.516393203614598 H 0.0 **** 0.06
16661 C 126.44332582311665 101.33275534357354 143.03146165023122 C 0.0 **** -0.24
16662 H 127.00178511471825 100.85884620206042 143.83916164039894 H 0.0 **** 0.06
16663 H 126.728240147775 102.38260234130877 142.96095622392392 H 0.0 **** 0.06
16664 H 125.37494781000856 101.25818793560997 143.237017163679 H 0.0 **** 0.06
16665 H 126.66826650950864 100.82980976583332 142.09145298586418 H 0.0 **** 0.06
16666 C 52.91162166555253 126.2259710307772 132.69911657669292 C 0.0 **** -0.24
16667 H 52.59082804026647 125.67283360748672 131.8171895533153 H 0.0 **** 0.06
16668 H 53.88992950342853 126.67060941355746 132.51273406248438 H 0.0 **** 0.06
16669 H 52.97648418008876 125.54821302815895 133.55015995335845 H 0.0 **** 0.06
16670 H 52.18936020376091 127.01424159508372 132.91541699190284 H 0.0 **** 0.06
16671 C 57.36476345748753 134.73863118591416 18.791465702281123 C 0.0 **** -0.24
16672 H 57.2205977059495 134.60545641073034 17.718595404497016 H 0.0 **** 0.06
16673 H 57.755315488683465 135.73934564170926 18.983592499835005 H 0.0 **** 0.06
16674 H 58.07301632301815 133.99552737501008 19.157061755574027 H 0.0 **** 0.06
16675 H 56.41106417730282 134.6156982566253 19.30419277383168 H 0.0 **** 0.06
16676 C 22.158169659748268 0.7960178747804285 138.60148316407404 C 0.0 **** -0.24
16677 H 22.489099152179364 1.2730334743041674 139.5233750420219 H 0.0 **** 0.06
16678 H 21.232822330195944 0.25048473375245806 138.78616885094698 H 0.0 **** 0.06
16679 H 22.925277699321015 0.1027808042346301 138.25562692234766 H 0.0 **** 0.06
16680 H 21.98637855654843 1.5568796745867104 137.839580893107 H 0.0 **** 0.06
16681 C 52.967261644437485 76.19384514881094 124.33657567303831 C 0.0 **** -0.24
16682 H 52.99483812909298 76.38529402678705 123.26425308840899 H 0.0 **** 0.06
16683 H 52.1828510482587 75.46867477254837 124.55636397697569 H 0.0 **** 0.06
16684 H 52.76188439008857 77.12422175138813 124.86632228295494 H 0.0 **** 0.06
16685 H 53.93024451779306 75.79661754821917 124.65964095481931 H 0.0 **** 0.06
16686 C 29.89174658469355 9.590397055848939 121.4214043670545 C 0.0 **** -0.24
16687 H 30.328432633616814 8.603217885621575 121.26835372008522 H 0.0 **** 0.06
16688 H 30.682422298300168 10.340705574271425 121.42659493023491 H 0.0 **** 0.06
16689 H 29.366162703019157 9.610386581314742 122.37656452978761 H 0.0 **** 0.06
16690 H 29.190246340594 9.806822445469834 120.61688197983749 H 0.0 **** 0.06
16691 C 41.73180550300478 145.17819097562088 55.91369739559562 C 0.0 **** -0.24
16692 H 42.5764871216401 144.51659498081014 56.10475650067477 H 0.0 **** 0.06
16693 H 41.61779149675725 145.87171567935923 56.748462216542976 H 0.0 **** 0.06
16694 H 40.82311319309626 144.58582056329826 55.80745019014691 H 0.0 **** 0.06
16695 H 41.90954241517903 145.73881018705987 54.99692888084098 H 0.0 **** 0.06
16696 C 106.26167433849089 7.320512585208235 91.62589025827215 C 0.0 **** -0.24
16697 H 105.50657761089967 6.807587216476691 91.03005353358218 H 0.0 **** 0.06
16698 H 106.45454674524147 6.750193333218704 92.53487271608792 H 0.0 **** 0.06
16699 H 105.90140032999706 8.315248272723352 91.89102138098862 H 0.0 **** 0.06
16700 H 107.18178103524126 7.408289774865807 91.04927021808082 H 0.0 **** 0.06
16701 C 97.6378529028826 99.29546612457932 58.060628838377596 C 0.0 **** -0.24
16702 H 96.69450205755768 99.54962119338734 57.57733671250028 H 0.0 **** 0.06
16703 H 98.33090110242935 100.1320199009869 57.96665061429255 H 0.0 **** 0.06
16704 H 98.06521535169352 98.4141730995218 57.582540114127454 H 0.0 **** 0.06
16705 H 97.46165468567173 99.08655431384324 59.11604864195672 H 0.0 **** 0.06
16706 C 57.53511852065279 5.584164882310997 88.81425474545435 C 0.0 **** -0.24
16707 H 57.54229652729978 6.231433741549406 87.93669537942331 H 0.0 **** 0.06
16708 H 58.39536495663177 4.914945956206196 88.77764814111843 H 0.0 **** 0.06
16709 H 56.6179756921496 4.99614566709198 88.82441761127173 H 0.0 **** 0.06
16710 H 57.58703559153764 6.194337277452476 89.71578297428495 H 0.0 **** 0.06
16711 C 17.202367115044552 85.73082722768237 130.88044601896283 C 0.0 **** -0.24
16712 H 16.626276189636428 86.3466508833144 130.18988511468825 H 0.0 **** 0.06
16713 H 16.845281652204108 85.89532946234516 131.897545780737 H 0.0 **** 0.06
16714 H 18.255603684595116 86.00086463189535 130.816373029196 H 0.0 **** 0.06
16715 H 17.079883626330428 84.68014745812604 130.61781375765557 H 0.0 **** 0.06
16716 C 31.398597047747735 87.90661793844208 75.10551589814527 C 0.0 **** -0.24
16717 H 30.620247328348924 88.23731365954893 75.7934533704374 H 0.0 **** 0.06
16718 H 30.938034057786155 87.44870651854922 74.2296296050235 H 0.0 **** 0.06
16719 H 32.03738786519307 87.17754571051239 75.60389614375566 H 0.0 **** 0.06
16720 H 31.99730964043131 88.76288956666815 74.79520150925516 H 0.0 **** 0.06
16721 C 77.0726707737222 143.34893997840416 88.95298461867458 C 0.0 **** -0.24
16722 H 76.93771241584616 144.23793492887543 88.33589777764496 H 0.0 **** 0.06
16723 H 77.1599219503976 143.6433001331076 89.99890011821384 H 0.0 **** 0.06
16724 H 77.9772386491625 142.82568273830105 88.64431540809741 H 0.0 **** 0.06
16725 H 76.21275703745974 142.6896705068805 88.83109506484908 H 0.0 **** 0.06
16726 C 8.6022426686431 78.02470110695089 80.497758195133 C 0.0 **** -0.24
16727 H 9.619794526629676 77.69229672461452 80.29533935745192 H 0.0 **** 0.06
16728 H 8.184101048071852 77.43655383519126 81.31566243112539 H 0.0 **** 0.06
16729 H 7.992088834769106 77.89144603901022 79.60499885637572 H 0.0 **** 0.06
16730 H 8.613632323874583 79.07844253195088 80.77739404295463 H 0.0 **** 0.06
16731 C 109.43404357866885 106.49930072124931 114.04541707825244 C 0.0 **** -0.24
16732 H 110.13380139974029 107.05309528062355 113.41969232677893 H 0.0 **** 0.06
16733 H 109.45569102302935 106.90193231641564 115.05838554204603 H 0.0 **** 0.06
16734 H 109.71873073573394 105.447255838822 114.06523349329574 H 0.0 **** 0.06
16735 H 108.42738087426793 106.59546243836553 113.6365184417174 H 0.0 **** 0.06
16736 C 44.25593060490273 140.39223202011522 58.762193697607614 C 0.0 **** -0.24
16737 H 45.04935719815819 141.07202604478107 59.07114543760312 H 0.0 **** 0.06
16738 H 44.224455406670344 139.5389611361329 59.44068619141902 H 0.0 **** 0.06
16739 H 44.449765571037375 140.0426940402342 57.748276990630586 H 0.0 **** 0.06
16740 H 43.29864920646813 140.9135827949338 58.7896641764776 H 0.0 **** 0.06
16741 C 34.84520916468438 24.889583323354643 31.172814740797037 C 0.0 **** -0.24
16742 H 35.57782722742072 25.688123367903884 31.289221188181784 H 0.0 **** 0.06
16743 H 34.848056183610005 24.26173569534423 32.064633225549926 H 0.0 **** 0.06
16744 H 35.1009472065893 24.286363568941454 30.30265279816868 H 0.0 **** 0.06
16745 H 33.854825515259925 25.322802276481127 31.036713981876275 H 0.0 **** 0.06
16746 C 67.75969754150721 30.480266697232196 8.882574126832083 C 0.0 **** -0.24
16747 H 67.84261573506761 31.114119134206135 9.765343377562004 H 0.0 **** 0.06
16748 H 67.05199478144495 30.925477489085324 8.182466207372585 H 0.0 **** 0.06
16749 H 67.40821418433546 29.49132762830527 9.176219915902465 H 0.0 **** 0.06
16750 H 68.73608461152752 30.392168419225698 8.405327951055767 H 0.0 **** 0.06
16751 C 7.449663648602581 103.13500653932624 44.399255302210406 C 0.0 **** -0.24
16752 H 7.21471724575693 103.35904813406434 43.359354157549944 H 0.0 **** 0.06
16753 H 6.54377851223262 102.81593261730896 44.9158023947864 H 0.0 **** 0.06
16754 H 7.847801001613703 104.02838170070903 44.88233443484455 H 0.0 **** 0.06
16755 H 8.191950660285613 102.338695750651 44.44083607861273 H 0.0 **** 0.06
16756 C 79.09521352412972 82.9435672848184 109.3664441614924 C 0.0 **** -0.24
16757 H 79.47965637347653 83.05955475383608 110.37913041172207 H 0.0 **** 0.06
16758 H 78.01898691669281 82.7732739998026 109.40385281600935 H 0.0 **** 0.06
16759 H 79.58081639167256 82.09266344178074 108.88915454110624 H 0.0 **** 0.06
16760 H 79.30056308236914 83.84763292666398 108.79365297062542 H 0.0 **** 0.06
16761 C 33.589215876360214 39.81219354206433 42.19755335930206 C 0.0 **** -0.24
16762 H 34.07057178672281 40.71779930101137 42.56626812586792 H 0.0 **** 0.06
16763 H 33.088878387431436 39.30611002987115 43.02359924373492 H 0.0 **** 0.06
16764 H 34.34108802614048 39.15105264976709 41.7669864371703 H 0.0 **** 0.06
16765 H 32.855469010039485 40.07564301227065 41.43474350247985 H 0.0 **** 0.06
16766 C 109.296721935334 47.260449713350454 135.79967439244476 C 0.0 **** -0.24
16767 H 109.02354095813422 47.27533956183021 136.85440246523027 H 0.0 **** 0.06
16768 H 108.7058922598278 46.50383489328556 135.28201884419164 H 0.0 **** 0.06
16769 H 110.35620350129568 47.023582679750405 135.70302187307797 H 0.0 **** 0.06
16770 H 109.1005963422719 48.23779013863776 135.35932530606212 H 0.0 **** 0.06
16771 C 50.96105850857299 80.45282097879607 139.6928594934993 C 0.0 **** -0.24
16772 H 51.55186013643004 79.68179888854189 140.18646483024744 H 0.0 **** 0.06
16773 H 51.312924988602504 80.58100107665103 138.66960698140622 H 0.0 **** 0.06
16774 H 51.06680045383678 81.3938895648675 140.23378324966802 H 0.0 **** 0.06
16775 H 49.91230725712188 80.15596636719698 139.6835832903906 H 0.0 **** 0.06
16776 C 13.011039803122003 89.69753943140343 7.699952402650723 C 0.0 **** -0.24
16777 H 13.983304137630682 89.60280733606878 7.21772244270284 H 0.0 **** 0.06
16778 H 13.143563005329383 89.72401072452331 8.78132271252807 H 0.0 **** 0.06
16779 H 12.387600955950745 88.84495872859358 7.431194086893118 H 0.0 **** 0.06
16780 H 12.528902321916803 90.61787843450034 7.369924406910393 H 0.0 **** 0.06
16781 C 41.116805736082284 134.33674504868915 36.94722807836129 C 0.0 **** -0.24
16782 H 40.59980527595904 135.13632232669508 37.476628251826895 H 0.0 **** 0.06
16783 H 40.912903315845796 134.41757243558342 35.878417180111796 H 0.0 **** 0.06
16784 H 40.76485026348169 133.3718664098432 37.31185314808582 H 0.0 **** 0.06
16785 H 42.19047840142284 134.42095235627966 37.11971894661278 H 0.0 **** 0.06
16786 C 71.03317564020419 105.65158499488219 8.380947906807169 C 0.0 **** -0.24
16787 H 70.83491849838921 104.75064205639507 7.800426744702648 H 0.0 **** 0.06
16788 H 71.53810490860275 105.3820028867196 9.309149320633061 H 0.0 **** 0.06
16789 H 70.09142466288672 106.15037638858438 8.610497794372897 H 0.0 **** 0.06
16790 H 71.66867161711775 106.32305397273434 7.802392610847022 H 0.0 **** 0.06
16791 C 145.0126412476215 45.41435835404681 19.56494912479451 C 0.0 **** -0.24
16792 H 144.10014860146964 45.39805797375094 18.969219864458978 H 0.0 **** 0.06
16793 H 144.75435930085064 45.40536285379389 20.623766107954566 H 0.0 **** 0.06
16794 H 145.57949078385707 46.317319647819986 19.33597872373815 H 0.0 **** 0.06
16795 H 145.6154889123057 44.53749139902378 19.329347934534724 H 0.0 **** 0.06
16796 C 77.49372822715647 120.52768930396516 67.74174146566187 C 0.0 **** -0.24
16797 H 78.5653189198189 120.37936238434392 67.60661031057903 H 0.0 **** 0.06
16798 H 77.23230090765303 120.35239250768646 68.78639633001248 H 0.0 **** 0.06
16799 H 76.94773754754293 119.82845480210673 67.10772078338249 H 0.0 **** 0.06
16800 H 77.23015065349168 121.54876817427478 67.46693120826932 H 0.0 **** 0.06
16801 C 41.49929061607419 84.59092175579022 61.1929791594855 C 0.0 **** -0.24
16802 H 42.43166930139846 85.10973729800428 60.96799835806601 H 0.0 **** 0.06
16803 H 40.70471104443126 85.321952008826 61.34275223415759 H 0.0 **** 0.06
16804 H 41.62437307509509 83.99817146174921 62.09855594728228 H 0.0 **** 0.06
16805 H 41.238741336250925 83.93551475052506 60.361767611336944 H 0.0 **** 0.06
16806 C 109.92551654285734 134.97407038222173 46.72086603119507 C 0.0 **** -0.24
16807 H 110.58056362089832 134.12393629147576 46.91223808866974 H 0.0 **** 0.06
16808 H 109.07492564539433 134.64871435530588 46.12051484169396 H 0.0 **** 0.06
16809 H 110.47721039217492 135.7442014129049 46.18197274060046 H 0.0 **** 0.06
16810 H 109.56887694696366 135.37721096785012 47.667822572282205 H 0.0 **** 0.06
16811 C 50.10375301638443 33.74977390101509 112.98832066358317 C 0.0 **** -0.24
16812 H 49.72362658172071 34.037748181878044 113.96865000607689 H 0.0 **** 0.06
16813 H 49.285469523179785 33.3660001291438 112.38027654755048 H 0.0 **** 0.06
16814 H 50.86326786979794 32.97740397234264 113.10611175744064 H 0.0 **** 0.06
16815 H 50.54349958672 34.619940576283966 112.50031468575294 H 0.0 **** 0.06
16816 C 103.13002292038954 65.71087269900573 98.08466758765833 C 0.0 **** -0.24
16817 H 102.27013642754724 66.15473276259186 98.58660420808332 H 0.0 **** 0.06
16818 H 103.09532551857296 65.95330545341855 97.02291935446074 H 0.0 **** 0.06
16819 H 103.10502487633886 64.62882255491726 98.21178744720129 H 0.0 **** 0.06
16820 H 104.0480804896871 66.10701291568355 98.51894991031531 H 0.0 **** 0.06
16821 C 127.08414027138053 65.8822764047554 115.60705275063096 C 0.0 **** -0.24
16822 H 127.30977270898353 66.6664485770427 114.8838508862146 H 0.0 **** 0.06
16823 H 127.22063772461854 66.27095454558054 116.61635332879804 H 0.0 **** 0.06
16824 H 127.75450870340643 65.03853012193554 115.44774421381548 H 0.0 **** 0.06
16825 H 126.05185248019865 65.55686922017335 115.47844880667738 H 0.0 **** 0.06
16826 C 135.14356521421425 131.74659058196482 12.034725438610351 C 0.0 **** -0.24
16827 H 135.84247743801305 131.21776417088415 11.386440593667444 H 0.0 **** 0.06
16828 H 135.68288480928268 132.1703072889776 12.881686126800432 H 0.0 **** 0.06
16829 H 134.38695090656978 131.0498720500085 12.397298227471204 H 0.0 **** 0.06
16830 H 134.66101927999176 132.5463626428094 11.47252263856332 H 0.0 **** 0.06
16831 C 66.70684161604758 21.35513048483142 28.489648969189957 C 0.0 **** -0.24
16832 H 66.60199319726426 21.26224660006841 27.408745511984634 H 0.0 **** 0.06
16833 H 67.74988241140271 21.553764396007224 28.738525280953752 H 0.0 **** 0.06
16834 H 66.38976488030696 20.426863832472435 28.96589712159266 H 0.0 **** 0.06
16835 H 66.08459504077541 22.176810828654126 28.845575294724554 H 0.0 **** 0.06
16836 C 19.669420062875304 52.82060399748252 77.83055042054707 C 0.0 **** -0.24
16837 H 20.032660466822392 53.78680110587288 77.48128630086049 H 0.0 **** 0.06
16838 H 19.68065773078618 52.80069369838816 78.91978048838102 H 0.0 **** 0.06
16839 H 20.3138846392481 52.03092613861452 77.44524125341904 H 0.0 **** 0.06
16840 H 18.650827127001747 52.66531253007804 77.47412102615759 H 0.0 **** 0.06
16841 C 72.25128409715803 138.05041367624796 65.08634210750736 C 0.0 **** -0.24
16842 H 72.59357209483215 138.8229139735709 64.39704597740965 H 0.0 **** 0.06
16843 H 71.20604203034942 137.8171972482151 64.87919701015835 H 0.0 **** 0.06
16844 H 72.3472587006126 138.410113731789 66.11052110421784 H 0.0 **** 0.06
16845 H 72.85621955731007 137.1533563983309 64.95715157883791 H 0.0 **** 0.06
16846 C 84.4461228090665 111.79617958879044 45.89174161481992 C 0.0 **** -0.24
16847 H 85.03776789535007 112.25599385539488 45.10056224229939 H 0.0 **** 0.06
16848 H 84.53266683917107 112.39110065615802 46.80127719737409 H 0.0 **** 0.06
16849 H 84.81395335895411 110.7877509082154 46.080950959023895 H 0.0 **** 0.06
16850 H 83.40106107624956 111.75012797910904 45.585184724825226 H 0.0 **** 0.06
16851 C 80.97894813713935 50.18370100837424 69.12675018669555 C 0.0 **** -0.24
16852 H 80.8579547745478 50.36941980063037 70.1941517274459 H 0.0 **** 0.06
16853 H 80.24674052220809 49.443213066978814 68.80277091119268 H 0.0 **** 0.06
16854 H 81.98354685949059 49.80894154840013 68.93461850257636 H 0.0 **** 0.06
16855 H 80.8252800114782 51.111776188808136 68.57677615753538 H 0.0 **** 0.06
16856 C 144.84583595784125 127.38030322258095 7.872646380642834 C 0.0 **** -0.24
16857 H 143.7882368057601 127.64545082534002 7.843359054517151 H 0.0 **** 0.06
16858 H 145.0012663030964 126.59373736838776 8.610787589019623 H 0.0 **** 0.06
16859 H 145.4327118989694 128.25708139636222 8.145407331882808 H 0.0 **** 0.06
16860 H 145.15796957750976 127.02502066708608 6.89091486074696 H 0.0 **** 0.06
16861 C 54.925970903186425 120.1936851520651 33.75762220022949 C 0.0 **** -0.24
16862 H 55.32552281278281 121.19402902545237 33.920288255715036 H 0.0 **** 0.06
16863 H 54.694055873246626 119.73378954741595 34.71829298223142 H 0.0 **** 0.06
16864 H 55.66473370313852 119.58816177493038 33.23366054906836 H 0.0 **** 0.06
16865 H 54.01751695396872 120.25875568583199 33.15736373939504 H 0.0 **** 0.06
16866 C 93.94338892647389 7.210479208408401 65.43942651417524 C 0.0 **** -0.24
16867 H 93.87521774854935 7.711040695112615 66.40482422787608 H 0.0 **** 0.06
16868 H 93.3517043572761 7.757313147823481 64.70488044022602 H 0.0 **** 0.06
16869 H 93.56268928765365 6.193268214482089 65.52999397171078 H 0.0 **** 0.06
16870 H 94.98510121133162 7.181090840475463 65.11817461125904 H 0.0 **** 0.06
16871 C 16.22747991216744 68.09308490523516 25.847324929269575 C 0.0 **** -0.24
16872 H 16.288827719500063 67.99092485473086 26.930832968401432 H 0.0 **** 0.06
16873 H 15.2190833255614 67.84139860120993 25.515963633648397 H 0.0 **** 0.06
16874 H 16.94261301388096 67.4186065463549 25.376788564182263 H 0.0 **** 0.06
16875 H 16.456533697425357 69.12014934849356 25.565243670375168 H 0.0 **** 0.06
16876 C 98.38237807495557 129.70747092285634 14.90577081255335 C 0.0 **** -0.24
16877 H 97.376726831582 129.76700687312368 14.491806004077269 H 0.0 **** 0.06
16878 H 98.34668275959592 129.21937323269518 15.881022829291759 H 0.0 **** 0.06
16879 H 98.78982921049536 130.71257227901768 15.017573140261035 H 0.0 **** 0.06
16880 H 99.01833066391845 129.13084918111582 14.234008524297984 H 0.0 **** 0.06
16881 C 115.04371228868564 28.360474325548864 96.68901774323186 C 0.0 **** -0.24
16882 H 115.89406228758497 28.0890950055919 97.31511922746752 H 0.0 **** 0.06
16883 H 114.44942414254496 29.121462872761583 97.194646974809 H 0.0 **** 0.06
16884 H 114.42999246974409 27.478529591431368 96.50860898734176 H 0.0 **** 0.06
16885 H 115.4042760884247 28.752997443643324 95.73841781274616 H 0.0 **** 0.06
16886 C 89.89754673114484 12.827893690923673 79.21645573181019 C 0.0 **** -0.24
16887 H 90.79926545808716 13.438783042254983 79.2652456777146 H 0.0 **** 0.06
16888 H 89.13665924875399 13.348965184841802 78.63562217387778 H 0.0 **** 0.06
16889 H 89.52571175582163 12.64799568308382 80.225393973344 H 0.0 **** 0.06
16890 H 90.13032972681347 11.874672535809395 78.74026305310885 H 0.0 **** 0.06
16891 C 9.043752648102611 114.46848214186828 24.758679984131547 C 0.0 **** -0.24
16892 H 8.165081140428242 113.83220430609659 24.855234177201993 H 0.0 **** 0.06
16893 H 9.062591740192033 114.91415247248916 23.763904149459215 H 0.0 **** 0.06
16894 H 9.943850358042084 113.87001644143551 24.905130958478075 H 0.0 **** 0.06
16895 H 9.005624959082411 115.25774580742281 25.509822489908075 H 0.0 **** 0.06
16896 C 51.14679578344871 23.09469708516727 49.04860487372318 C 0.0 **** -0.24
16897 H 50.9882102852073 22.017092271408814 49.09644237289565 H 0.0 **** 0.06
16898 H 51.08576624181441 23.51460481448821 50.053464000168006 H 0.0 **** 0.06
16899 H 50.38170793201721 23.54697578448787 48.41777253166735 H 0.0 **** 0.06
16900 H 52.13193055234858 23.297874713341628 48.628411769243996 H 0.0 **** 0.06
16901 C 47.19829563465842 69.24677325041418 140.08280608253057 C 0.0 **** -0.24
16902 H 47.32939235010522 68.16568458060297 140.0400179871584 H 0.0 **** 0.06
16903 H 47.869048808467966 69.72290116846565 139.3671711827441 H 0.0 **** 0.06
16904 H 47.42822556347784 69.60122808615702 141.0880915830069 H 0.0 **** 0.06
16905 H 46.16712038840885 69.49850747695109 139.83700465082944 H 0.0 **** 0.06
16906 C 34.47923821127924 102.82207163777193 2.502081035189267 C 0.0 **** -0.24
16907 H 34.78955321494243 103.8467223924523 2.299055676623791 H 0.0 **** 0.06
16908 H 35.24654851612624 102.31946979279138 3.0898098170121315 H 0.0 **** 0.06
16909 H 34.337198810018634 102.29259317735458 1.5597741421321558 H 0.0 **** 0.06
16910 H 33.54232541826522 102.83016515487856 3.058790830636859 H 0.0 **** 0.06
16911 C 99.47126950115373 119.03868240797824 91.95003521729353 C 0.0 **** -0.24
16912 H 99.57665897404758 119.1962572918999 90.87651897463763 H 0.0 **** 0.06
16913 H 98.54559041615263 118.49687323342216 92.14859760904329 H 0.0 **** 0.06
16914 H 99.44523344646527 120.00257237934623 92.45779019799164 H 0.0 **** 0.06
16915 H 100.31794432574489 118.45815868687764 92.31688104580866 H 0.0 **** 0.06
16916 C 137.32549418214873 43.19337522961298 70.64032661101648 C 0.0 **** -0.24
16917 H 138.36439080700362 43.52220768574544 70.63811612865074 H 0.0 **** 0.06
16918 H 137.21514570253092 42.33110311624492 69.9814700368344 H 0.0 **** 0.06
16919 H 136.68723468612913 44.0041858518416 70.28768672027525 H 0.0 **** 0.06
16920 H 137.03412359569975 42.916430618583135 71.65322874684396 H 0.0 **** 0.06
16921 C 92.012040179843 72.60951859832366 54.841454439262876 C 0.0 **** -0.24
16922 H 91.28241418687806 72.46456118117413 54.0447875380317 H 0.0 **** 0.06
16923 H 91.55108363194772 73.16219940644089 55.66025838020822 H 0.0 **** 0.06
16924 H 92.86311348682355 73.17067181778759 54.456628306785134 H 0.0 **** 0.06
16925 H 92.3513987621698 71.63775021838964 55.203359079099684 H 0.0 **** 0.06
16926 C 115.73637538596896 105.91575990569274 145.07133876114008 C 0.0 **** -0.24
16927 H 115.33852471734414 105.27330284454942 145.85686639651755 H 0.0 **** 0.06
16928 H 116.7317005529761 105.57272992133872 144.79161019250085 H 0.0 **** 0.06
16929 H 115.79414823356475 106.94148552512169 145.4370985148701 H 0.0 **** 0.06
16930 H 115.07924577946878 105.87628390628717 144.2022039894008 H 0.0 **** 0.06
16931 C 11.488130875104673 116.32600601574994 126.07709525378473 C 0.0 **** -0.24
16932 H 11.85922846727388 116.46974622315737 127.09154249194293 H 0.0 **** 0.06
16933 H 11.171315319891107 117.28505244945988 125.66702727536116 H 0.0 **** 0.06
16934 H 10.641857543614378 115.63915690763965 126.0932089678528 H 0.0 **** 0.06
16935 H 12.281825613176125 115.90975490147211 125.45661110890481 H 0.0 **** 0.06
16936 C 2.4898164363746105 39.25951246762503 101.3182261476569 C 0.0 **** -0.24
16937 H 2.465347389383453 39.71885581001311 102.30613192857196 H 0.0 **** 0.06
16938 H 2.1737154110226697 38.21883278227803 101.39300481575405 H 0.0 **** 0.06
16939 H 3.5039713727533695 39.30423520728746 100.92092204587445 H 0.0 **** 0.06
16940 H 1.8151716941916334 39.79754817920741 100.65192144061403 H 0.0 **** 0.06
16941 C 95.37812362092012 43.86832946034083 44.99468330172948 C 0.0 **** -0.24
16942 H 94.69105871459487 43.24942113496806 44.417250002898356 H 0.0 **** 0.06
16943 H 96.06701702083467 44.37456750942691 44.318412777759306 H 0.0 **** 0.06
16944 H 95.941495540825 43.23844866655085 45.684152824776504 H 0.0 **** 0.06
16945 H 94.81134984922878 44.60866624877356 45.5597061762993 H 0.0 **** 0.06
16946 C 19.078174700440968 8.266259902351745 60.124446933943474 C 0.0 **** -0.24
16947 H 18.057587643644695 7.895247803821984 60.0326375657757 H 0.0 **** 0.06
16948 H 19.367559442866877 8.278111526313673 61.175732789097694 H 0.0 **** 0.06
16949 H 19.135011885735082 9.276596280157918 59.72094751815753 H 0.0 **** 0.06
16950 H 19.752883679174886 7.614181641283949 59.56950311253168 H 0.0 **** 0.06
16951 C 108.09164986315629 13.95612331508093 124.46052366174527 C 0.0 **** -0.24
16952 H 107.60125979368867 13.540917829841135 123.58021697155559 H 0.0 **** 0.06
16953 H 109.14847517239592 14.11589855497246 124.24395938132746 H 0.0 **** 0.06
16954 H 107.99139703281166 13.26020498061159 125.29335313520981 H 0.0 **** 0.06
16955 H 107.6263531191964 14.906203706943884 124.72199461631335 H 0.0 **** 0.06
16956 C 21.93228061613904 114.83432059147246 91.58159894174 C 0.0 **** -0.24
16957 H 21.175601123788894 114.23552044358475 91.07319704314122 H 0.0 **** 0.06
16958 H 22.494486195836572 114.20068129161423 92.2680915147046 H 0.0 **** 0.06
16959 H 21.44715650332931 115.63474958101976 92.13977893260986 H 0.0 **** 0.06
16960 H 22.610093055028536 115.2641764027346 90.84424680976434 H 0.0 **** 0.06
16961 C 67.39582607091242 117.85516782042123 37.62321789599373 C 0.0 **** -0.24
16962 H 66.33977267979017 117.85977413695065 37.89492906031045 H 0.0 **** 0.06
16963 H 67.49613247419026 117.61865937581376 36.56323235765444 H 0.0 **** 0.06
16964 H 67.91833536795491 117.10374675371293 38.21427479950623 H 0.0 **** 0.06
16965 H 67.82605481040278 118.83679715405412 37.82015685154594 H 0.0 **** 0.06
16966 C 112.7701604354296 95.3172708801975 91.08872823880505 C 0.0 **** -0.24
16967 H 113.39495296256655 94.65614842637407 91.69034468787699 H 0.0 **** 0.06
16968 H 113.36744826821939 95.75029472762475 90.28578395231678 H 0.0 **** 0.06
16969 H 112.37421428053472 96.11463408249459 91.7181402576679 H 0.0 **** 0.06
16970 H 111.94510183698486 94.74676770498922 90.66216366591979 H 0.0 **** 0.06
16971 C 126.87487981811796 134.21063835172902 56.055319597483845 C 0.0 **** -0.24
16972 H 126.0023285576326 134.86268417849524 56.10261084568822 H 0.0 **** 0.06
16973 H 127.60849306673185 134.53193546182558 56.79540250525713 H 0.0 **** 0.06
16974 H 127.3152248377836 134.26447408696885 55.05908723243476 H 0.0 **** 0.06
16975 H 126.57297059319251 133.18477631674628 56.26405809017663 H 0.0 **** 0.06
16976 C 103.5227700284934 142.4101374516636 139.94638049811408 C 0.0 **** -0.24
16977 H 102.55581224758853 142.6977357877129 139.53327305989862 H 0.0 **** 0.06
16978 H 103.51851441934807 142.56747723695867 141.02517241429905 H 0.0 **** 0.06
16979 H 104.30663722121213 143.0164305908777 139.49286342775497 H 0.0 **** 0.06
16980 H 103.70953853456703 141.3567176520945 139.73327669747647 H 0.0 **** 0.06
16981 C 105.15050402448244 71.32834485056914 71.63601918398884 C 0.0 **** -0.24
16982 H 105.64649845620383 71.79744269522686 72.48658528632635 H 0.0 **** 0.06
16983 H 104.08503424114565 71.23539366302722 71.84214302427601 H 0.0 **** 0.06
16984 H 105.57753074525758 70.34007630394011 71.4679646704987 H 0.0 **** 0.06
16985 H 105.29716251686065 71.9429691489205 70.74725701020687 H 0.0 **** 0.06
16986 C 141.83901886947882 1.2171735581297298 9.675651847350025 C 0.0 **** -0.24
16987 H 141.5583199223956 1.1888062566088138 8.623092458784583 H 0.0 **** 0.06
16988 H 142.68232007986623 1.895552638801746 9.808733889637665 H 0.0 **** 0.06
16989 H 142.1223107714549 0.21690182615873255 10.004093747535705 H 0.0 **** 0.06
16990 H 140.99279798294313 1.567707933818724 10.267591720881228 H 0.0 **** 0.06
16991 C 35.34455579109198 18.086097076502227 12.801991674152916 C 0.0 **** -0.24
16992 H 35.95808709425468 18.984486791996034 12.866514053631356 H 0.0 **** 0.06
16993 H 35.355726124758895 17.712428498223943 11.777128756098755 H 0.0 **** 0.06
16994 H 34.320805487015875 18.32285154564994 13.091778720614016 H 0.0 **** 0.06
16995 H 35.74446367782683 17.32434214044838 13.471457138621133 H 0.0 **** 0.06
16996 C 80.2873352143344 98.89840700399824 23.32916389416205 C 0.0 **** -0.24
16997 H 80.99979416229996 99.3917151909769 22.66792855022979 H 0.0 **** 0.06
16998 H 79.33644394882461 98.77464796436058 22.810141320155488 H 0.0 **** 0.06
16999 H 80.13787526351368 99.50679625078888 24.22149464636427 H 0.0 **** 0.06
17000 H 80.67462890113532 97.92154143933158 23.616390471278528 H 0.0 **** 0.06
17001 C 8.511975997296872 107.55591482033769 97.78265445236926 C 0.0 **** -0.24
17002 H 7.554878672683856 107.81460570360947 98.234636307155 H 0.0 **** 0.06
17003 H 9.007459596712295 106.79840298119454 98.3909181826469 H 0.0 **** 0.06
17004 H 9.13965828110264 108.44522080723614 97.72810450634934 H 0.0 **** 0.06
17005 H 8.34632142728367 107.16557346679015 96.77915157155118 H 0.0 **** 0.06
17006 C 120.32018846658518 11.536683890283058 53.325723525780774 C 0.0 **** -0.24
17007 H 121.24033556969586 11.22210915724213 52.83151100087164 H 0.0 **** 0.06
17008 H 119.52833671688022 11.643633125003078 52.58405609146074 H 0.0 **** 0.06
17009 H 120.484313097993 12.491136142685463 53.823783569308986 H 0.0 **** 0.06
17010 H 120.02967378505356 10.786887716772611 54.062297255618276 H 0.0 **** 0.06
17011 C 21.77195698479784 108.42424798720744 16.742613470373257 C 0.0 **** -0.24
17012 H 21.92771759322337 108.96305207204112 15.808402223726716 H 0.0 **** 0.06
17013 H 22.403298107628572 107.53530460418013 16.75975956774873 H 0.0 **** 0.06
17014 H 20.72543413452044 108.12869048262009 16.82191425560324 H 0.0 **** 0.06
17015 H 22.03111952103825 109.0701824323376 17.58174777909329 H 0.0 **** 0.06
17016 C 5.952158600377118 47.60887286511364 130.35950970575078 C 0.0 **** -0.24
17017 H 6.112001182702556 46.53129737144751 130.3133866829867 H 0.0 **** 0.06
17018 H 6.084739893702874 48.03780313697739 129.366245430597 H 0.0 **** 0.06
17019 H 6.671468650189979 48.05279630912884 131.04716215521466 H 0.0 **** 0.06
17020 H 4.9408651867361755 47.80990553649099 130.7108006456788 H 0.0 **** 0.06
17021 C 22.540293303454916 97.96846226875121 58.63676823607048 C 0.0 **** -0.24
17022 H 22.584696612368077 98.75610811113228 59.38881827585067 H 0.0 **** 0.06
17023 H 23.106466801161247 98.27488188035807 57.756456617972475 H 0.0 **** 0.06
17024 H 21.501949879554132 97.79134274102032 58.35815656745709 H 0.0 **** 0.06
17025 H 22.96866541636544 97.05273331560326 59.044031917194374 H 0.0 **** 0.06
17026 C 70.23981284811056 83.19688636717056 132.78446050850374 C 0.0 **** -0.24
17027 H 70.48968368999466 82.22402390580073 133.20795088160406 H 0.0 **** 0.06
17028 H 70.41960307970622 83.97264843132864 133.52970587136605 H 0.0 **** 0.06
17029 H 69.18932451999301 83.20766367405302 132.4950559685385 H 0.0 **** 0.06
17030 H 70.86081305700387 83.38247125847482 131.90879343048644 H 0.0 **** 0.06
17031 C 38.44611005796331 4.837827449086831 66.3743230222384 C 0.0 **** -0.24
17032 H 38.77964151103107 5.822260632228051 66.04754950461313 H 0.0 **** 0.06
17033 H 38.57100436664612 4.752745504702148 67.45455422074289 H 0.0 **** 0.06
17034 H 39.039446946501954 4.070561688373175 65.87774024741188 H 0.0 **** 0.06
17035 H 37.394301621583566 4.706417501124179 66.11868974821996 H 0.0 **** 0.06
17036 C 2.7602351866569848 123.05696699734511 79.65110841019825 C 0.0 **** -0.24
17037 H 2.8742204672257117 124.04291369256293 80.10086760610199 H 0.0 **** 0.06
17038 H 2.2515843811431466 122.39508232783788 80.35263815030038 H 0.0 **** 0.06
17039 H 3.743634219812094 122.65006607293776 79.4141845719985 H 0.0 **** 0.06
17040 H 2.1715817748930704 123.13969083677517 78.73773345864734 H 0.0 **** 0.06
17041 C 94.80071335825711 89.05842627408853 27.04541895442803 C 0.0 **** -0.24
17042 H 94.20799739251977 89.95626181971417 26.865752365374696 H 0.0 **** 0.06
17043 H 95.60368151220352 89.00048246834982 26.309640716138567 H 0.0 **** 0.06
17044 H 94.16271104726687 88.17883169501275 26.95771297864487 H 0.0 **** 0.06
17045 H 95.22779157422069 89.09997771309312 28.047506066640338 H 0.0 **** 0.06
17046 C 96.12966148409774 114.62391023781474 114.79404681449863 C 0.0 **** -0.24
17047 H 95.71630878636172 114.49969490645812 115.79421226603195 H 0.0 **** 0.06
17048 H 96.05980952513465 113.67948557477943 114.25219465995643 H 0.0 **** 0.06
17049 H 97.17518640388735 114.9241936928323 114.86762270408981 H 0.0 **** 0.06
17050 H 95.56853311531809 115.39119272376836 114.2606000607068 H 0.0 **** 0.06
17051 C 36.99178034365001 103.83640090631013 40.23326180440334 C 0.0 **** -0.24
17052 H 37.70405319479951 103.24192865777519 39.66081701085349 H 0.0 **** 0.06
17053 H 36.765535360913574 103.32867757853734 41.170553167680225 H 0.0 **** 0.06
17054 H 36.07505079069351 103.95898550956935 39.65498512892404 H 0.0 **** 0.06
17055 H 37.42181524013536 104.81541519222492 40.44365879377665 H 0.0 **** 0.06
17056 C 105.45309067303174 144.9209566762287 39.92419950119444 C 0.0 **** -0.24
17057 H 105.29947442106169 144.76711641066512 40.99185397464743 H 0.0 **** 0.06
17058 H 104.56479456848231 145.38101500043936 39.49180818860958 H 0.0 **** 0.06
17059 H 105.63767444121243 143.96073210207103 39.44171060921616 H 0.0 **** 0.06
17060 H 106.31210751802661 145.57504789019436 39.77180305062069 H 0.0 **** 0.06
17061 C 96.9035729123115 105.15820101550517 57.8248062672495 C 0.0 **** -0.24
17062 H 97.88414208982444 105.60050012630802 58.00774229610323 H 0.0 **** 0.06
17063 H 96.89375566779356 104.69495195502711 56.838422565897844 H 0.0 **** 0.06
17064 H 96.14085097876023 105.93595202891657 57.87003386032043 H 0.0 **** 0.06
17065 H 96.6997223063414 104.40335642080723 58.5838665014829 H 0.0 **** 0.06
17066 C 30.943095891307223 49.66982063872793 24.126380850080608 C 0.0 **** -0.24
17067 H 30.003464947822266 49.923679751680424 24.617741376678737 H 0.0 **** 0.06
17068 H 30.734343815704705 49.105567790211154 23.216559295288164 H 0.0 **** 0.06
17069 H 31.551561595250263 49.06425068036566 24.797912979079513 H 0.0 **** 0.06
17070 H 31.47934443307176 50.584046797256946 23.874032117065866 H 0.0 **** 0.06
17071 C 35.99386543175166 139.75074316887944 112.22339254960796 C 0.0 **** -0.24
17072 H 35.329399331189556 139.43271145655257 111.41912046306187 H 0.0 **** 0.06
17073 H 36.72041621361306 140.46411986253696 111.83372657285189 H 0.0 **** 0.06
17074 H 36.517162926742195 138.88330629287978 112.62534762608665 H 0.0 **** 0.06
17075 H 35.40858267984999 140.22092916775617 113.01383997851632 H 0.0 **** 0.06
17076 C 27.205799934423673 114.46110608974188 109.52724200349662 C 0.0 **** -0.24
17077 H 28.029338651646732 114.76607138882319 108.88180491810756 H 0.0 **** 0.06
17078 H 26.935908654626488 113.42853608236784 109.30693596537769 H 0.0 **** 0.06
17079 H 26.34687833409908 115.10789847671266 109.34842872864014 H 0.0 **** 0.06
17080 H 27.512922568386863 114.54325127981319 110.57012300188599 H 0.0 **** 0.06
17081 C 90.76083621432434 116.1831339592983 91.85603945876474 C 0.0 **** -0.24
17082 H 90.50109972286945 115.78870424933565 90.87382815710296 H 0.0 **** 0.06
17083 H 90.04507021797284 116.95467109191846 92.13885099451015 H 0.0 **** 0.06
17084 H 91.7622799706622 116.61117481942556 91.82150995880501 H 0.0 **** 0.06
17085 H 90.7344926272536 115.37614115594597 92.58877034987492 H 0.0 **** 0.06
17086 C 6.364167618472862 95.79594996347572 51.890041488252024 C 0.0 **** -0.24
17087 H 6.759778048917298 96.2615884319523 50.98667270575626 H 0.0 **** 0.06
17088 H 6.99424917157441 94.95175274909374 52.1693874722495 H 0.0 **** 0.06
17089 H 5.349293554355114 95.44564725148852 51.70127033127548 H 0.0 **** 0.06
17090 H 6.352704419372174 96.52495395968785 52.69929088947579 H 0.0 **** 0.06
17091 C 25.78307487258735 22.72717916519744 134.23391753519925 C 0.0 **** -0.24
17092 H 26.706298936698573 23.178200367028154 133.8698445912425 H 0.0 **** 0.06
17093 H 26.022764203550906 21.912561345820308 134.91780331353903 H 0.0 **** 0.06
17094 H 25.211767303233557 22.33855417983895 133.39174646232908 H 0.0 **** 0.06
17095 H 25.19244905193699 23.4797162267173 134.75724539386357 H 0.0 **** 0.06
17096 C 128.33787207658605 109.09412488803905 116.37272993149277 C 0.0 **** -0.24
17097 H 127.37363544924744 108.7154981917523 116.7119797687596 H 0.0 **** 0.06
17098 H 128.71451902665203 109.82283640973101 117.09051993541972 H 0.0 **** 0.06
17099 H 128.2199167981995 109.57042448056193 115.39976738465144 H 0.0 **** 0.06
17100 H 129.0437213916071 108.26771828175994 116.28960495890188 H 0.0 **** 0.06
17101 C 19.822869507075985 16.333558187226053 51.18454091640022 C 0.0 **** -0.24
17102 H 20.293467926538383 16.92198605203327 51.97242903558124 H 0.0 **** 0.06
17103 H 19.991731065631583 15.273722238218376 51.373388480014995 H 0.0 **** 0.06
17104 H 20.255368666953053 16.60458929271075 50.22146640752261 H 0.0 **** 0.06
17105 H 18.75183722721644 16.53500170524368 51.170820451137274 H 0.0 **** 0.06
17106 C 82.91155145773058 33.834553176159126 140.26635991222292 C 0.0 **** -0.24
17107 H 82.13028857120575 33.546477541494646 140.97003998564574 H 0.0 **** 0.06
17108 H 83.88003912261539 33.80290321222623 140.76536874363092 H 0.0 **** 0.06
17109 H 82.7210709948792 34.84536713520135 139.9061596686562 H 0.0 **** 0.06
17110 H 82.91287479946705 33.14353548643568 139.42274818571718 H 0.0 **** 0.06
17111 C 108.56053553872447 69.32680908300743 80.06037066587646 C 0.0 **** -0.24
17112 H 107.77130234579103 69.97763248332737 79.6835712764817 H 0.0 **** 0.06
17113 H 109.48840164237662 69.53696964192837 79.52777141828801 H 0.0 **** 0.06
17114 H 108.27846439738674 68.28633139845655 79.90450250508815 H 0.0 **** 0.06
17115 H 108.70333986629252 69.50916078185367 81.12629362469994 H 0.0 **** 0.06
17116 C 98.35579296944069 120.66667440772379 95.78186811671628 C 0.0 **** -0.24
17117 H 97.99347283252904 120.39526361351277 94.79048868319632 H 0.0 **** 0.06
17118 H 98.11468659454562 119.87009726239857 96.48652726298583 H 0.0 **** 0.06
17119 H 97.87805473088859 121.59331226321764 96.10199373592053 H 0.0 **** 0.06
17120 H 99.43556544116791 120.80794235174544 95.74822847600628 H 0.0 **** 0.06
17121 C 5.146977499955909 101.0366161988226 37.94940143115434 C 0.0 **** -0.24
17122 H 5.083503252210079 100.71613309445476 36.90872685774991 H 0.0 **** 0.06
17123 H 5.215801254307451 102.12362963112139 37.99013201580141 H 0.0 **** 0.06
17124 H 6.032535053183551 100.5979622113444 38.41033357221835 H 0.0 **** 0.06
17125 H 4.2574194282017 100.70767853361703 38.48595274759049 H 0.0 **** 0.06
17126 C 104.6536588824183 93.41169413137976 76.03783313247276 C 0.0 **** -0.24
17127 H 104.27857788426329 92.86445733639253 75.17261693990845 H 0.0 **** 0.06
17128 H 104.96089492032051 94.41152425005035 75.73039099502512 H 0.0 **** 0.06
17129 H 105.50782140484064 92.88240635870513 76.45973681776641 H 0.0 **** 0.06
17130 H 103.86704294859202 93.48746446134808 76.7888265701306 H 0.0 **** 0.06
17131 C 65.19969618609818 33.19191320492281 2.2353370060435864 C 0.0 **** -0.24
17132 H 65.724120375452 32.893013500029355 1.327253766102917 H 0.0 **** 0.06
17133 H 65.86970685807515 33.78173997486794 2.8620107965241104 H 0.0 **** 0.06
17134 H 64.88074781494532 32.30390055621308 2.780022529563759 H 0.0 **** 0.06
17135 H 64.32804459797865 33.79049692607036 1.971837654442865 H 0.0 **** 0.06
17136 C 89.99525196139025 29.43438002990257 144.2272142044788 C 0.0 **** -0.24
17137 H 89.27507719977866 30.13339769542779 143.80056145903757 H 0.0 **** 0.06
17138 H 89.4926305856925 28.79377980101239 144.9517181638527 H 0.0 **** 0.06
17139 H 90.79104340584077 29.989737679853107 144.7228660200858 H 0.0 **** 0.06
17140 H 90.41992050440115 28.821047628928824 143.4331223664562 H 0.0 **** 0.06
17141 C 132.8683608146393 5.368027605065663 50.20437690783251 C 0.0 **** -0.24
17142 H 133.61406978869803 4.612172716431701 49.959453698511965 H 0.0 **** 0.06
17143 H 133.05020300751096 5.744633933222133 51.21121453603223 H 0.0 **** 0.06
17144 H 131.8727138237225 4.926470473207985 50.15546586257017 H 0.0 **** 0.06
17145 H 132.9357065601603 6.190029128247943 49.49128717308537 H 0.0 **** 0.06
17146 C 132.87098265713686 19.243262908210028 27.32213910237445 C 0.0 **** -0.24
17147 H 133.68979236748638 18.984937906461454 26.64977625510312 H 0.0 **** 0.06
17148 H 132.83158884246558 20.325648560674125 27.44608400672726 H 0.0 **** 0.06
17149 H 133.03490280033878 18.77176096862945 28.2913604520393 H 0.0 **** 0.06
17150 H 131.93032304281763 18.890045678661323 26.90015100233174 H 0.0 **** 0.06
17151 C 64.16279067437924 102.20034372117183 13.280492121869003 C 0.0 **** -0.24
17152 H 64.15176036084159 101.45975668406223 12.481561576879983 H 0.0 **** 0.06
17153 H 64.63147849989033 101.77217535426135 14.166981547248298 H 0.0 **** 0.06
17154 H 63.14009252158351 102.49593288348356 13.516062623682444 H 0.0 **** 0.06
17155 H 64.72773411614823 103.07490534507392 12.957571421817846 H 0.0 **** 0.06
17156 C 58.742753310641916 142.8939831900853 58.16579739816409 C 0.0 **** -0.24
17157 H 58.26095274978309 142.13460092435534 57.550099679615116 H 0.0 **** 0.06
17158 H 59.66634531924976 143.2187420273042 57.68718443129434 H 0.0 **** 0.06
17159 H 58.96830307219999 142.47575045734973 59.14737451403897 H 0.0 **** 0.06
17160 H 58.07266833501299 143.74634431149198 58.280023321133854 H 0.0 **** 0.06
17161 C 102.49269991704178 53.58600199407499 34.66228219371462 C 0.0 **** -0.24
17162 H 102.77977755392305 52.826406459865694 35.38858164927444 H 0.0 **** 0.06
17163 H 101.48657436825336 53.940793132244636 34.88445442328947 H 0.0 **** 0.06
17164 H 102.51356631410849 53.15568211974309 33.6603324158759 H 0.0 **** 0.06
17165 H 103.1925637337277 54.42065677951348 34.713321057537286 H 0.0 **** 0.06
17166 C 101.40522934109218 37.947289553859314 95.84627653605477 C 0.0 **** -0.24
17167 H 101.34885261247216 37.56583320870418 96.86514530086717 H 0.0 **** 0.06
17168 H 100.47351281759218 38.456593971981974 95.59695687495716 H 0.0 **** 0.06
17169 H 101.56136036277461 37.11722654484979 95.15634577312763 H 0.0 **** 0.06
17170 H 102.23575300854515 38.64782025288871 95.76635143699986 H 0.0 **** 0.06
17171 C 19.32015209595974 100.88172145723198 140.97255833329316 C 0.0 **** -0.24
17172 H 19.68616304330817 100.7434095105107 139.9547294034121 H 0.0 **** 0.06
17173 H 18.235877405581192 100.99693131239061 140.95558688630382 H 0.0 **** 0.06
17174 H 19.773621215831525 101.77383201403117 141.40346710300142 H 0.0 **** 0.06
17175 H 19.58488065432408 100.01222141179275 141.5742695270181 H 0.0 **** 0.06
17176 C 102.83849668562658 109.29391604583786 92.97991900112021 C 0.0 **** -0.24
17177 H 103.90378747369144 109.22135646520952 93.1950456282481 H 0.0 **** 0.06
17178 H 102.34042428104036 109.83286451247893 93.78669739983891 H 0.0 **** 0.06
17179 H 102.41468133507047 108.29277791866933 92.89563415885414 H 0.0 **** 0.06
17180 H 102.6945034159848 109.82957902975953 92.04095092072612 H 0.0 **** 0.06
17181 C 128.38225323580352 132.4095166350863 141.0865393580011 C 0.0 **** -0.24
17182 H 128.53520464829336 132.45152397197464 140.00712227388513 H 0.0 **** 0.06
17183 H 127.35616173122551 132.69460512985668 141.3190101610713 H 0.0 **** 0.06
17184 H 129.07043223081322 133.0980044662344 141.57680466133226 H 0.0 **** 0.06
17185 H 128.5678059268725 131.39557071330765 141.4399084733354 H 0.0 **** 0.06
17186 C 70.20147256086292 105.0222024277451 21.495640427287043 C 0.0 **** -0.24
17187 H 70.35993767133134 104.20535163547461 20.790626565665576 H 0.0 **** 0.06
17188 H 69.36436336551178 105.6346725993777 21.159149084411013 H 0.0 **** 0.06
17189 H 71.10157572986607 105.63406580391822 21.550324670641146 H 0.0 **** 0.06
17190 H 69.97922816163818 104.61258007408568 22.481563801584286 H 0.0 **** 0.06
17191 C 88.04086123309244 26.10220745625118 95.48271985443718 C 0.0 **** -0.24
17192 H 87.88935822778932 25.024835395251728 95.5541775903312 H 0.0 **** 0.06
17193 H 87.48735856963656 26.599428878377402 96.2786994490046 H 0.0 **** 0.06
17194 H 87.68290632908702 26.454373158915097 94.51495928091734 H 0.0 **** 0.06
17195 H 89.10299428897595 26.32655623148326 95.58128403758926 H 0.0 **** 0.06
17196 C 15.283897345364863 122.08285495270869 33.82263606999325 C 0.0 **** -0.24
17197 H 15.906949240625238 122.89944777490305 34.187443409497604 H 0.0 **** 0.06
17198 H 15.167329981053797 122.1703917094483 32.74297954586737 H 0.0 **** 0.06
17199 H 14.304980344239851 122.13337395368578 34.299683494352024 H 0.0 **** 0.06
17200 H 15.756146658218285 121.13122642169375 34.06263927741807 H 0.0 **** 0.06
17201 C 131.29257259662762 64.62656049729378 139.27529439482907 C 0.0 **** -0.24
17202 H 131.43271808868104 65.47246979024084 139.94736995053734 H 0.0 **** 0.06
17203 H 131.55424073768052 64.92338900414995 138.25872732858295 H 0.0 **** 0.06
17204 H 130.25042328186925 64.30881622933487 139.30402193993933 H 0.0 **** 0.06
17205 H 131.93314916848038 63.80200106574375 139.58973411850758 H 0.0 **** 0.06
17206 C 76.62933767586236 127.02820686446012 38.24532507264226 C 0.0 **** -0.24
17207 H 75.70419399480775 126.6499669420917 37.810242743041016 H 0.0 **** 0.06
17208 H 77.4803960239401 126.57837343749524 37.73482391117139 H 0.0 **** 0.06
17209 H 76.66387765501614 126.77380636013703 39.30473447253897 H 0.0 **** 0.06
17210 H 76.66801437968209 128.11205840833134 38.130909631893616 H 0.0 **** 0.06
17211 C 36.57451062163227 14.193367527358816 55.67250729318778 C 0.0 **** -0.24
17212 H 36.75797887036333 13.804564864831718 54.6707439484276 H 0.0 **** 0.06
17213 H 35.763598779608174 13.631027683149512 56.13688735251122 H 0.0 **** 0.06
17214 H 36.29807495881556 15.245055361945504 55.60973910748476 H 0.0 **** 0.06
17215 H 37.47797366571541 14.090480953242434 56.27324663809159 H 0.0 **** 0.06
17216 C 122.0879462970308 34.99568361793249 131.50611132837588 C 0.0 **** -0.24
17217 H 122.42463533970026 35.38437185812247 132.46721165564244 H 0.0 **** 0.06
17218 H 121.41688399599393 34.15222917916653 131.67119595266695 H 0.0 **** 0.06
17219 H 122.94929342629882 34.66642384878434 130.92455905850113 H 0.0 **** 0.06
17220 H 121.56077180706212 35.77898741099744 130.96214065834954 H 0.0 **** 0.06
17221 C 121.09765151169323 3.757715081723944 104.87872259739936 C 0.0 **** -0.24
17222 H 121.33030381674273 4.750182211030506 104.49266586445538 H 0.0 **** 0.06
17223 H 120.11854169764545 3.446098456070473 104.51280455332198 H 0.0 **** 0.06
17224 H 121.08617162238654 3.7853765215946567 105.9685120139084 H 0.0 **** 0.06
17225 H 121.85425809053508 3.049047219005928 104.54136039147127 H 0.0 **** 0.06
17226 C 63.37506745258594 102.3644889910056 96.67488903104177 C 0.0 **** -0.24
17227 H 62.38650565197358 102.8046655995073 96.54552520106216 H 0.0 **** 0.06
17228 H 63.96781769430467 102.99250324293035 97.33998387157197 H 0.0 **** 0.06
17229 H 63.869944399586274 102.29177079324683 95.70678999835616 H 0.0 **** 0.06
17230 H 63.276002064479115 101.36901632833792 97.10725705317667 H 0.0 **** 0.06
17231 C 105.87437672571939 45.86600642165874 22.82136912777439 C 0.0 **** -0.24
17232 H 106.92611819016217 45.62326306028636 22.968587979068033 H 0.0 **** 0.06
17233 H 105.34580530471509 44.98679897425704 22.45336858249143 H 0.0 **** 0.06
17234 H 105.78694709565535 46.67359373438356 22.09353140309176 H 0.0 **** 0.06
17235 H 105.43781213213414 46.182707112544136 23.76829779501154 H 0.0 **** 0.06
17236 C 98.4717368998601 92.64653809149107 109.10733416005321 C 0.0 **** -0.24
17237 H 98.04881039773883 93.60986664676652 109.39356517716418 H 0.0 **** 0.06
17238 H 99.554811642435 92.67578937551562 109.22633987143148 H 0.0 **** 0.06
17239 H 98.22493659242582 92.43730405390532 108.06574705985533 H 0.0 **** 0.06
17240 H 98.05607024792347 91.86491231565446 109.74286878259657 H 0.0 **** 0.06
17241 C 52.52709770938682 4.7620844983457395 141.395670068399 C 0.0 **** -0.24
17242 H 52.84185381743217 4.946287351244926 140.36872714081338 H 0.0 **** 0.06
17243 H 52.70619770036538 3.7171858311189254 141.64945713155186 H 0.0 **** 0.06
17244 H 51.46362490701772 4.983261250790303 141.4945559004635 H 0.0 **** 0.06
17245 H 53.09453550715054 5.40272268375989 142.06995406793627 H 0.0 **** 0.06
17246 C 101.81943691228268 103.18329350458306 52.895765807382645 C 0.0 **** -0.24
17247 H 100.78615191227283 103.52182332085926 52.967400565078094 H 0.0 **** 0.06
17248 H 101.93782934795982 102.56689756867698 52.003521298657404 H 0.0 **** 0.06
17249 H 102.07267265298799 102.5971020170597 53.77872620509379 H 0.0 **** 0.06
17250 H 102.48074313029127 104.04744288330733 52.8304370662068 H 0.0 **** 0.06
17251 C 52.36681874462471 105.19248890108338 108.035208504874 C 0.0 **** -0.24
17252 H 51.90081017944789 104.34425145280498 108.53748948427891 H 0.0 **** 0.06
17253 H 53.4024098125455 105.28411873511742 108.3614001242786 H 0.0 **** 0.06
17254 H 51.82451758181827 106.10392331498436 108.28445256801218 H 0.0 **** 0.06
17255 H 52.33712617061798 105.03590526686138 106.95644307250693 H 0.0 **** 0.06
17256 C 73.75155790597815 114.65730854635109 128.79542690753055 C 0.0 **** -0.24
17257 H 74.10291995278523 114.49324114666922 129.81414742837083 H 0.0 **** 0.06
17258 H 72.66588973105864 114.56213414968715 128.76595884971607 H 0.0 **** 0.06
17259 H 74.19977704425976 113.91636217351783 128.13281766352577 H 0.0 **** 0.06
17260 H 74.03731056033119 115.65676674343024 128.4681875306413 H 0.0 **** 0.06
17261 C 128.25681543538465 124.59426942627722 63.310354658866274 C 0.0 **** -0.24
17262 H 128.9842081133662 125.36527510679723 63.56329339444203 H 0.0 **** 0.06
17263 H 127.26299253566192 124.91394217779637 63.62706645710131 H 0.0 **** 0.06
17264 H 128.51940045888418 123.66657706345059 63.8168581581393 H 0.0 **** 0.06
17265 H 128.2594943800558 124.43330156780101 62.23231195662902 H 0.0 **** 0.06
17266 C 98.66619936362 73.52858185379964 89.30494690745995 C 0.0 **** -0.24
17267 H 97.76565353186902 72.91549345390018 89.31522628514304 H 0.0 **** 0.06
17268 H 99.38909230248697 73.09961687963242 88.61108327300428 H 0.0 **** 0.06
17269 H 99.09687190888856 73.55740869608479 90.30661308724268 H 0.0 **** 0.06
17270 H 98.4131279929457 74.5404873274363 88.98866841146696 H 0.0 **** 0.06
17271 C 16.10170873646956 28.200441350128187 134.02627077727647 C 0.0 **** -0.24
17272 H 15.034047795208522 28.33547062762196 133.85315490530502 H 0.0 **** 0.06
17273 H 16.6096739157052 28.059834881605838 133.07156760636417 H 0.0 **** 0.06
17274 H 16.25943599594359 27.323969570069195 134.65513105283628 H 0.0 **** 0.06
17275 H 16.503677239021016 29.082490321215886 134.52522954460005 H 0.0 **** 0.06
17276 C 92.14418076337785 126.2538889078606 54.374766346293086 C 0.0 **** -0.24
17277 H 92.45283197799642 126.4540863504247 55.40052961495756 H 0.0 **** 0.06
17278 H 91.42263891069604 127.00748955742358 54.05818406473442 H 0.0 **** 0.06
17279 H 91.6862552871248 125.26594887709837 54.31876024623833 H 0.0 **** 0.06
17280 H 93.01564020946651 126.2875910314122 53.720411300656465 H 0.0 **** 0.06
17281 C 71.87469602906043 51.22283312166172 90.68119391501939 C 0.0 **** -0.24
17282 H 70.83016461091128 51.1701206035022 90.37431706872859 H 0.0 **** 0.06
17283 H 72.51487151727363 50.96789102714919 89.83718281992225 H 0.0 **** 0.06
17284 H 72.05003681127775 50.51984854727863 91.49651916540135 H 0.0 **** 0.06
17285 H 72.10265841225112 52.23387434447196 91.01893153503381 H 0.0 **** 0.06
17286 C 115.30708311918204 22.65448707586669 37.339592604368136 C 0.0 **** -0.24
17287 H 115.66967124445671 23.641583754485033 37.62545948031104 H 0.0 **** 0.06
17288 H 114.7848240153171 22.721227312626333 36.3851398452274 H 0.0 **** 0.06
17289 H 114.623896257576 22.283969815667895 38.103219166879484 H 0.0 **** 0.06
17290 H 116.15157650799154 21.971736154354886 37.244592591933355 H 0.0 **** 0.06
17291 C 94.5797587788613 102.90372451043976 49.5210548890707 C 0.0 **** -0.24
17292 H 94.17832901171272 103.88129138001187 49.786324586594176 H 0.0 **** 0.06
17293 H 95.27378052928063 102.57429732281778 50.29507781297893 H 0.0 **** 0.06
17294 H 95.10419081962706 102.97292405792341 48.56791987156247 H 0.0 **** 0.06
17295 H 93.76410093862202 102.18672262047495 49.43475646156979 H 0.0 **** 0.06
17296 C 73.16429477197326 71.48691610979448 131.3231498020333 C 0.0 **** -0.24
17297 H 72.64463624723724 70.57140733085456 131.60444423131835 H 0.0 **** 0.06
17298 H 73.87140075310735 71.7591371246212 132.10678093361597 H 0.0 **** 0.06
17299 H 72.4393459221891 72.29047539796845 131.19108331078212 H 0.0 **** 0.06
17300 H 73.70275405398678 71.32668391710108 130.38827055400088 H 0.0 **** 0.06
17301 C 72.47292934468089 111.87178748351828 17.95489931374803 C 0.0 **** -0.24
17302 H 71.58333602018183 112.49130170223573 18.067663390282817 H 0.0 **** 0.06
17303 H 73.33944598590108 112.50907789303885 17.781268387022095 H 0.0 **** 0.06
17304 H 72.3409595602352 111.19808595676632 17.10722649884559 H 0.0 **** 0.06
17305 H 72.62619695303653 111.2882075639997 18.862170703509094 H 0.0 **** 0.06
17306 C 130.69157968651527 88.16722347544692 13.832883578610819 C 0.0 **** -0.24
17307 H 130.45739676195402 88.96880725255801 13.132322585385936 H 0.0 **** 0.06
17308 H 131.68274631859018 88.33277105984712 14.256251790601368 H 0.0 **** 0.06
17309 H 130.67415499646 87.21100170926465 13.309739983613525 H 0.0 **** 0.06
17310 H 129.95067982202355 88.15662505764647 14.633544585621536 H 0.0 **** 0.06
17311 C 37.87614199617039 140.28872943071198 124.47558816646652 C 0.0 **** -0.24
17312 H 38.05258378959698 141.2385036350954 124.98111480213176 H 0.0 **** 0.06
17313 H 38.618741899938385 140.15181229820217 123.68969761043914 H 0.0 **** 0.06
17314 H 36.878513233880824 140.29159572626548 124.03610944457961 H 0.0 **** 0.06
17315 H 37.95382953628851 139.4744566367552 125.1951361521868 H 0.0 **** 0.06
17316 C 43.01663749840323 36.813597712784784 117.73870654232596 C 0.0 **** -0.24
17317 H 43.463608900771945 37.72246862375141 117.33639185089848 H 0.0 **** 0.06
17318 H 43.385241729474714 35.95080665535275 117.18412616322908 H 0.0 **** 0.06
17319 H 41.93171361525154 36.86996842028839 117.64513065616941 H 0.0 **** 0.06
17320 H 43.28508598954137 36.710857864452436 118.79062900802055 H 0.0 **** 0.06
17321 C 68.11549375526073 118.86757413065091 48.429699333879924 C 0.0 **** -0.24
17322 H 67.57612289932024 119.42243910578027 47.66247198402796 H 0.0 **** 0.06
17323 H 69.074343761195 119.35054896190046 48.62072791991213 H 0.0 **** 0.06
17324 H 68.2833889753648 117.8462340217918 48.08891722558977 H 0.0 **** 0.06
17325 H 67.52712237701286 118.85291003442829 49.347478179069626 H 0.0 **** 0.06
17326 C 68.50187455937728 98.09314503932983 88.1777546557164 C 0.0 **** -0.24
17327 H 69.43426075198443 98.42939244888687 88.63292893970488 H 0.0 **** 0.06
17328 H 68.53540630658492 97.01282198359479 88.03838610237153 H 0.0 **** 0.06
17329 H 68.37278792802366 98.58089444621916 87.21195497645903 H 0.0 **** 0.06
17330 H 67.66725566745299 98.35076862757788 88.83047306946891 H 0.0 **** 0.06
17331 C 2.334235427709615 133.09859141698965 140.9168118027898 C 0.0 **** -0.24
17332 H 3.2326382734601395 133.60591696119738 141.26765363793206 H 0.0 **** 0.06
17333 H 2.3609150780050356 132.05391630069943 141.2270568722973 H 0.0 **** 0.06
17334 H 2.2878895265048413 133.15412894031527 139.82939995824466 H 0.0 **** 0.06
17335 H 1.4546590274812274 133.58150214061496 141.34284055387954 H 0.0 **** 0.06
17336 C 114.07447330190499 26.629528982813213 136.2970125702261 C 0.0 **** -0.24
17337 H 113.06021337112057 27.02494000541708 136.25312903993014 H 0.0 **** 0.06
17338 H 114.56971152502214 26.791137874323567 135.33849723203912 H 0.0 **** 0.06
17339 H 114.03876496155519 25.5610754113128 136.51175151587404 H 0.0 **** 0.06
17340 H 114.63003141269834 27.14006824081565 137.08395524195745 H 0.0 **** 0.06
17341 C 87.50876915404837 120.20696164149535 144.13190399182358 C 0.0 **** -0.24
17342 H 88.2845126519101 120.70468690550638 143.5506016146165 H 0.0 **** 0.06
17343 H 87.08874242549257 120.90949735088225 144.85166021271087 H 0.0 **** 0.06
17344 H 87.94012271500142 119.35836220076453 144.66253943744752 H 0.0 **** 0.06
17345 H 86.7215682029439 119.85698836965202 143.46427515861072 H 0.0 **** 0.06
17346 C 61.46774853511664 65.55322738698598 143.59044568521276 C 0.0 **** -0.24
17347 H 61.902442497919424 65.4965142211041 144.58892789204037 H 0.0 **** 0.06
17348 H 61.33138930831092 66.5982764974037 143.31241796906676 H 0.0 **** 0.06
17349 H 60.50217493045744 65.04671364173456 143.58550891638973 H 0.0 **** 0.06
17350 H 62.13523069445171 65.07039306676744 142.87588530771592 H 0.0 **** 0.06
17351 C 4.955591536906379 96.38990276962909 103.08566750081305 C 0.0 **** -0.24
17352 H 5.045839507445798 95.3876727496384 103.50515314781356 H 0.0 **** 0.06
17353 H 5.817446982049866 96.98752294633545 103.3831338465486 H 0.0 **** 0.06
17354 H 4.043894405124384 96.85782366678706 103.45696962329215 H 0.0 **** 0.06
17355 H 4.914366933994625 96.32684810350236 101.99792783967924 H 0.0 **** 0.06
17356 C 8.42948344924983 29.05940269796656 92.3585480041325 C 0.0 **** -0.24
17357 H 8.949562466818549 28.451725682190045 91.61782985925872 H 0.0 **** 0.06
17358 H 8.119296808542543 29.99976629222266 91.90206307686165 H 0.0 **** 0.06
17359 H 9.098909682866122 29.263976935019798 93.19365204806302 H 0.0 **** 0.06
17360 H 7.552560772151395 28.521756045085738 92.71838625520445 H 0.0 **** 0.06
17361 C 116.66632970098726 119.48995003293683 31.994712545296608 C 0.0 **** -0.24
17362 H 116.33107111266736 118.6359183613994 31.406892467056267 H 0.0 **** 0.06
17363 H 117.75600324179322 119.50497013922629 32.02454348288866 H 0.0 **** 0.06
17364 H 116.27629620035566 119.40737554190028 33.009838781807716 H 0.0 **** 0.06
17365 H 116.30115004981178 120.40984076441387 31.53969419932394 H 0.0 **** 0.06
17366 C 52.741530639810264 29.417318507759262 126.77139236054526 C 0.0 **** -0.24
17367 H 53.2647196746981 28.69411801098761 127.39496918988633 H 0.0 **** 0.06
17368 H 51.95936713391343 29.902881205073925 127.35484930650446 H 0.0 **** 0.06
17369 H 52.29429688713316 28.905347144276618 125.91873813067869 H 0.0 **** 0.06
17370 H 53.44771114084446 30.167323571264774 126.41481219869647 H 0.0 **** 0.06
17371 C 138.3645721995466 89.2069230675661 52.05375051377851 C 0.0 **** -0.24
17372 H 138.42652308837492 89.0593969948522 53.13206032670551 H 0.0 **** 0.06
17373 H 137.3372030303223 89.05123326184952 51.72387297540722 H 0.0 **** 0.06
17374 H 139.01976880178842 88.49567235945841 51.5519371123148 H 0.0 **** 0.06
17375 H 138.6745838587361 90.22316589958422 51.80802663719908 H 0.0 **** 0.06
17376 C 145.01435900865454 93.35981325700783 91.87941112004228 C 0.0 **** -0.24
17377 H 145.05850915153349 93.38670230944734 90.79078371538664 H 0.0 **** 0.06
17378 H 145.31220515398581 92.37217883661356 92.23112806629068 H 0.0 **** 0.06
17379 H 143.9972472753867 93.57158526304028 92.20691252648191 H 0.0 **** 0.06
17380 H 145.69193605194255 94.11017690487796 92.28781616390579 H 0.0 **** 0.06
17381 C 116.0038157459496 4.528172872040727 70.9571434484807 C 0.0 **** -0.24
17382 H 116.24596866454985 4.415393406329429 69.90074408312941 H 0.0 **** 0.06
17383 H 115.62507554723257 5.534603369515054 71.1376855453064 H 0.0 **** 0.06
17384 H 116.89959908775305 4.363855187096732 71.55563637107758 H 0.0 **** 0.06
17385 H 115.2423177491631 3.799331194439816 71.23518574593237 H 0.0 **** 0.06
17386 C 38.456427035914494 15.385918761172242 33.598543252833224 C 0.0 **** -0.24
17387 H 38.845702497727416 16.300240968260617 33.152667333681855 H 0.0 **** 0.06
17388 H 39.154747379123584 15.023318580094063 34.35340995667068 H 0.0 **** 0.06
17389 H 38.332155109527655 14.628339969626737 32.824319261047854 H 0.0 **** 0.06
17390 H 37.492812988062425 15.590465658036223 34.06422382248527 H 0.0 **** 0.06
17391 C 89.12794088997664 139.13743404186508 39.24390171314009 C 0.0 **** -0.24
17392 H 88.12736546836098 139.57115248039725 39.22601029527778 H 0.0 **** 0.06
17393 H 89.44774388288758 139.0053018611984 40.277979113690286 H 0.0 **** 0.06
17394 H 89.82134261774976 139.80397105075167 38.73074738026768 H 0.0 **** 0.06
17395 H 89.11370806234089 138.17084147066575 38.7411631258935 H 0.0 **** 0.06
17396 C 87.45400998568971 109.54591950756318 96.02667336154215 C 0.0 **** -0.24
17397 H 87.9228754415484 109.23698972319423 95.09234500643822 H 0.0 **** 0.06
17398 H 87.94686469860034 109.04741520671845 96.8618461738383 H 0.0 **** 0.06
17399 H 86.39920656116442 109.27332404946836 96.01072633489716 H 0.0 **** 0.06
17400 H 87.54874564450313 110.62586136922508 96.14027190490665 H 0.0 **** 0.06
17401 C 92.79250589067169 55.09559097001687 82.63866434636053 C 0.0 **** -0.24
17402 H 93.38830861950112 55.97850375987974 82.87312131613454 H 0.0 **** 0.06
17403 H 91.7509844253293 55.282556385316155 82.89763695071423 H 0.0 **** 0.06
17404 H 93.16302679157008 54.24505227167458 83.21285436824334 H 0.0 **** 0.06
17405 H 92.87027246512156 54.877364005898585 81.57438610628603 H 0.0 **** 0.06
17406 C 15.879187865489968 3.5532919620630317 46.51430819043054 C 0.0 **** -0.24
17407 H 15.214003368165777 3.586239493816578 45.65162346989055 H 0.0 **** 0.06
17408 H 16.117176647995763 2.5168748019270737 46.74980261794026 H 0.0 **** 0.06
17409 H 15.387511200760088 4.018076534213442 47.36910072085139 H 0.0 **** 0.06
17410 H 16.7969416152213 4.094755160186747 46.28528079499152 H 0.0 **** 0.06
17411 C 137.10727360127896 128.85257925338715 144.75143156242277 C 0.0 **** -0.24
17412 H 136.6105009353434 129.4289461896484 143.9716675455297 H 0.0 **** 0.06
17413 H 137.15926787694312 129.4466243522367 145.66435376739656 H 0.0 **** 0.06
17414 H 138.11506068973756 128.5955811262118 144.42681024775248 H 0.0 **** 0.06
17415 H 136.5426765460264 127.9397715182937 144.94322606095537 H 0.0 **** 0.06
17416 C 127.28390387836407 73.96839054320598 15.053156776854848 C 0.0 **** -0.24
17417 H 126.7874662494942 74.85138260059789 14.650847693919474 H 0.0 **** 0.06
17418 H 128.3571567069588 74.04458064082021 14.880618947126038 H 0.0 **** 0.06
17419 H 126.89847499555242 73.07716696004057 14.556067169751742 H 0.0 **** 0.06
17420 H 127.09156490363333 73.89879541186583 16.12353946967562 H 0.0 **** 0.06
17421 C 98.25623712357321 92.33423674136583 50.06935246665603 C 0.0 **** -0.24
17422 H 98.72494153143467 93.26818513834706 49.757675535821946 H 0.0 **** 0.06
17423 H 97.17389653111394 92.42140416331728 49.97184554802567 H 0.0 **** 0.06
17424 H 98.5126327226321 92.12879943436758 51.108422572370145 H 0.0 **** 0.06
17425 H 98.6147445903614 91.52033622899688 49.43898252884274 H 0.0 **** 0.06
17426 C 56.89538525492483 54.162443640339504 68.65713863104247 C 0.0 **** -0.24
17427 H 56.50604731134919 53.358041654268675 69.28047101995156 H 0.0 **** 0.06
17428 H 57.1627792217684 53.76510486928882 67.67795362943656 H 0.0 **** 0.06
17429 H 57.77880428337005 54.59203473188471 69.12932525038462 H 0.0 **** 0.06
17430 H 56.13420066072004 54.93339670543821 68.5415002313959 H 0.0 **** 0.06
17431 C 58.89421193089636 42.730474900494855 26.964868803271315 C 0.0 **** -0.24
17432 H 58.60956949745737 42.2828265485565 27.917009301965834 H 0.0 **** 0.06
17433 H 58.712951846315605 43.80523208370357 26.99995046179228 H 0.0 **** 0.06
17434 H 58.301110864355906 42.28805563527959 26.16377875518586 H 0.0 **** 0.06
17435 H 59.951919541573474 42.545398825290135 26.778322991668517 H 0.0 **** 0.06
17436 C 5.347014641532212 108.14094411463745 90.32248070429543 C 0.0 **** -0.24
17437 H 5.0022413169209585 108.74303367379432 89.48153336089722 H 0.0 **** 0.06
17438 H 6.360572657443754 107.79002186040478 90.12538258573984 H 0.0 **** 0.06
17439 H 4.684800860854068 107.28459062629153 90.45239427638313 H 0.0 **** 0.06
17440 H 5.341194967626279 108.74543833793516 91.2296343702882 H 0.0 **** 0.06
17441 C 28.28461083247913 22.48472421952635 72.63388822226024 C 0.0 **** -0.24
17442 H 27.71870754409317 22.47727658701809 71.70226925382545 H 0.0 **** 0.06
17443 H 28.438661394852844 21.46082455207972 72.97374520678294 H 0.0 **** 0.06
17444 H 27.730681872404624 23.04021404212066 73.3907023762861 H 0.0 **** 0.06
17445 H 29.25037287042902 22.961519648708773 72.4677777763345 H 0.0 **** 0.06
17446 C 54.018043058832816 111.4019813541384 59.05343781072733 C 0.0 **** -0.24
17447 H 53.57812047171885 112.17313329435325 58.42159473714818 H 0.0 **** 0.06
17448 H 54.01863837254204 111.73957553156208 60.09045602130462 H 0.0 **** 0.06
17449 H 55.04163541059181 111.20875348380815 58.73317141510748 H 0.0 **** 0.06
17450 H 53.43277934227582 110.48589142350272 58.96935125380378 H 0.0 **** 0.06
17451 C 104.49006327213289 117.19320012320718 60.46682631734683 C 0.0 **** -0.24
17452 H 103.77298612031205 116.37371448129166 60.51488394798437 H 0.0 **** 0.06
17453 H 104.13878986121577 117.94107790169245 59.755882073405274 H 0.0 **** 0.06
17454 H 105.45860203672703 116.81012794233267 60.14447512810531 H 0.0 **** 0.06
17455 H 104.58905107822093 117.64689444359031 61.4526552821429 H 0.0 **** 0.06
17456 C 124.92779018394023 36.21992770256902 112.80627828388486 C 0.0 **** -0.24
17457 H 124.28346822416286 36.26199081596659 113.68498918320563 H 0.0 **** 0.06
17458 H 125.63703916660474 35.3993996764578 112.91597124377614 H 0.0 **** 0.06
17459 H 125.46977894681785 37.16032118259657 112.70804812420482 H 0.0 **** 0.06
17460 H 124.31890523633513 36.05672074344943 111.91680342491344 H 0.0 **** 0.06
17461 C 58.83761090167374 19.306787973952424 57.865623047466954 C 0.0 **** -0.24
17462 H 58.830870909395884 20.026910864644606 57.04795841467376 H 0.0 **** 0.06
17463 H 59.724320715410556 19.46322360636367 58.480624293573214 H 0.0 **** 0.06
17464 H 58.851261347319365 18.295336484909427 57.4585942013112 H 0.0 **** 0.06
17465 H 57.94470913178705 19.440985825772486 58.475290344573864 H 0.0 **** 0.06
17466 C 53.69929185785503 109.782085489772 107.46182268467813 C 0.0 **** -0.24
17467 H 52.71635579979278 109.66972201463965 107.00506342451773 H 0.0 **** 0.06
17468 H 53.847062627153946 110.8223545466151 107.75201226075255 H 0.0 **** 0.06
17469 H 54.46818799308949 109.49188073428301 106.74645020187312 H 0.0 **** 0.06
17470 H 53.76420475123081 109.14608783727887 108.3448873575774 H 0.0 **** 0.06
17471 C 34.34484404478181 94.0417135887557 5.449516670635884 C 0.0 **** -0.24
17472 H 35.024487220729156 93.19767073772341 5.565217570763842 H 0.0 **** 0.06
17473 H 34.1745819667112 94.50681202698016 6.420928118377688 H 0.0 **** 0.06
17474 H 33.39578873433476 93.69065577202657 5.043425108973512 H 0.0 **** 0.06
17475 H 34.78420124525019 94.77131303886983 4.769813973737996 H 0.0 **** 0.06
17476 C 140.62617250443208 100.26115697976608 138.7817805351112 C 0.0 **** -0.24
17477 H 141.38058009358582 100.47326762884197 139.53963551746594 H 0.0 **** 0.06
17478 H 140.73058567888228 99.22997747764511 138.44357698365215 H 0.0 **** 0.06
17479 H 140.76157430430874 100.93646112829694 137.93596221585923 H 0.0 **** 0.06
17480 H 139.63322126048942 100.40639696467886 139.20646163866772 H 0.0 **** 0.06
17481 C 22.894115569266177 17.29632042585999 101.57385651141784 C 0.0 **** -0.24
17482 H 22.951778538129602 17.39287867578892 100.48967323226418 H 0.0 **** 0.06
17483 H 23.43334546290327 18.120868742193323 102.039976757881 H 0.0 **** 0.06
17484 H 23.341731263805677 16.350256282008587 101.87866092559952 H 0.0 **** 0.06
17485 H 21.849671282200084 17.321889739622435 101.88521202116672 H 0.0 **** 0.06
17486 C 99.20603824122625 112.17885693038558 46.78378645047462 C 0.0 **** -0.24
17487 H 98.22137597255573 111.98696729919335 47.208854018232415 H 0.0 **** 0.06
17488 H 99.97471153978326 111.82701927345629 47.472722275611545 H 0.0 **** 0.06
17489 H 99.3279557582241 113.24903658084868 46.617532074546375 H 0.0 **** 0.06
17490 H 99.30070268678784 111.65081173429341 45.834273488300894 H 0.0 **** 0.06
17491 C 115.35658661019072 41.62072791896421 83.02115435027329 C 0.0 **** -0.24
17492 H 116.09514377331836 42.422203737924576 83.03835103211412 H 0.0 **** 0.06
17493 H 115.64271042034382 40.84775891171543 83.73361061196836 H 0.0 **** 0.06
17494 H 115.30834494503905 41.19269797395438 82.01942532331014 H 0.0 **** 0.06
17495 H 114.37920211625355 42.02110767544684 83.29168998076854 H 0.0 **** 0.06
17496 C 101.52206932602105 66.45958628338069 27.45670215723871 C 0.0 **** -0.24
17497 H 100.7596798302654 66.76873396908628 26.7417540084692 H 0.0 **** 0.06
17498 H 101.20215125437409 66.72164666866863 28.4652058400994 H 0.0 **** 0.06
17499 H 102.46006950457803 66.96518342356431 27.22871078696545 H 0.0 **** 0.06
17500 H 101.66579225921352 65.38057654333845 27.390244278609003 H 0.0 **** 0.06
17501 C 29.397124627651664 62.562537790664464 2.7529179587308477 C 0.0 **** -0.24
17502 H 30.206819216710556 62.44565120335308 2.0327422255566034 H 0.0 **** 0.06
17503 H 28.50501056040956 62.05577771765677 2.3821623727226893 H 0.0 **** 0.06
17504 H 29.182909221395704 63.62185308042004 2.8895880449734364 H 0.0 **** 0.06
17505 H 29.693854055923097 62.124860021184105 3.706202136832019 H 0.0 **** 0.06
17506 C 15.968665703923733 142.7394406965543 59.23317353453115 C 0.0 **** -0.24
17507 H 16.110237766473887 141.80929345619668 59.784600239153875 H 0.0 **** 0.06
17508 H 14.919276947167901 142.84103177253493 58.95659554577328 H 0.0 **** 0.06
17509 H 16.583286168775032 142.72475653253372 58.33358200599207 H 0.0 **** 0.06
17510 H 16.262478603045196 143.5802447360961 59.860300616316266 H 0.0 **** 0.06
17511 C 87.20630159093011 104.58831883321275 112.25987595641485 C 0.0 **** -0.24
17512 H 86.23286018561114 104.94178962935536 112.60010548353742 H 0.0 **** 0.06
17513 H 87.85353857130397 105.44233654532641 112.06088870964302 H 0.0 **** 0.06
17514 H 87.08208777905375 104.00456885220999 111.3479369381873 H 0.0 **** 0.06
17515 H 87.65487764413703 103.96343161313305 113.03238576179669 H 0.0 **** 0.06
17516 C 99.08991362176748 43.53344942735953 91.77091777492481 C 0.0 **** -0.24
17517 H 98.96712686302655 42.58287073794871 92.28879460375026 H 0.0 **** 0.06
17518 H 99.87205429480163 43.43782396288495 91.01731332604406 H 0.0 **** 0.06
17519 H 99.36977112866546 44.30482409464753 92.48884104613136 H 0.0 **** 0.06
17520 H 98.1520403361031 43.80848671384172 91.28831432494599 H 0.0 **** 0.06
17521 C 30.1006284482717 4.678433619806242 131.74312584140586 C 0.0 **** -0.24
17522 H 30.201858401596546 3.8057524860126364 132.38869075083937 H 0.0 **** 0.06
17523 H 29.204202403474653 4.576526030184539 131.13119357395834 H 0.0 **** 0.06
17524 H 30.97477231340197 4.7548166245001084 131.09599365706566 H 0.0 **** 0.06
17525 H 30.023682649920126 5.576017444489537 132.35584720570392 H 0.0 **** 0.06
17526 C 122.48535012804449 29.478545479495665 101.59494305370917 C 0.0 **** -0.24
17527 H 122.28288289884547 30.519463765004105 101.33977035419657 H 0.0 **** 0.06
17528 H 123.4645617163823 29.194071822828036 101.21007906273212 H 0.0 **** 0.06
17529 H 121.72016600899723 28.841248027003473 101.15024183410284 H 0.0 **** 0.06
17530 H 122.47123305373181 29.36109403712817 102.67778685375127 H 0.0 **** 0.06
17531 C 73.61105862992193 81.36486530895675 32.54862220132361 C 0.0 **** -0.24
17532 H 74.1986901634611 82.21028576656379 32.19196649922961 H 0.0 **** 0.06
17533 H 73.7693718598242 80.50948228649317 31.890819220699456 H 0.0 **** 0.06
17534 H 72.55388933282435 81.63231386672192 32.54975703069428 H 0.0 **** 0.06
17535 H 73.92226751120448 81.1070110362934 33.56101644792233 H 0.0 **** 0.06
17536 C 15.936587975303574 3.4872173789216845 84.6831246490031 C 0.0 **** -0.24
17537 H 15.068960088478974 3.619926330263013 84.03679959015872 H 0.0 **** 0.06
17538 H 15.84122816014434 4.134069915617772 85.55614083801458 H 0.0 **** 0.06
17539 H 16.840595786668025 3.747713892105594 84.13465929553216 H 0.0 **** 0.06
17540 H 15.993478982876006 2.4477909174983097 85.0060115210351 H 0.0 **** 0.06
17541 C 57.82908357295737 73.82081587457537 25.99179742607015 C 0.0 **** -0.24
17542 H 58.17275331318248 74.25731838230212 25.05398264240239 H 0.0 **** 0.06
17543 H 58.62433198508553 73.21319109984717 26.422524661263935 H 0.0 **** 0.06
17544 H 56.95575486223001 73.19634449147003 25.802405319298487 H 0.0 **** 0.06
17545 H 57.56197262748269 74.61686123694983 26.686411272065925 H 0.0 **** 0.06
17546 C 29.739548568164537 112.68560207211236 71.19433716769883 C 0.0 **** -0.24
17547 H 28.90894031943165 113.16617737776936 71.7113277003785 H 0.0 **** 0.06
17548 H 29.351489196945025 112.01636665396067 70.42647860348484 H 0.0 **** 0.06
17549 H 30.33007385540472 112.11453122806837 71.91005137628109 H 0.0 **** 0.06
17550 H 30.367724090225238 113.44717425003633 70.73075946244283 H 0.0 **** 0.06
17551 C 106.40661905681505 113.00408966693604 55.380401977738615 C 0.0 **** -0.24
17552 H 106.322482773392 111.93763509019382 55.172102663138475 H 0.0 **** 0.06
17553 H 105.80221041843289 113.2527131962382 56.25240335908509 H 0.0 **** 0.06
17554 H 106.05344306227859 113.57176391727248 54.519570661439076 H 0.0 **** 0.06
17555 H 107.44957705583745 113.25457148122129 55.576927838829704 H 0.0 **** 0.06
17556 C 111.40042388872912 13.142903984639894 138.37271740429824 C 0.0 **** -0.24
17557 H 111.87217450045505 13.321024066564945 139.33927703055434 H 0.0 **** 0.06
17558 H 112.13958533828124 12.747477350846964 137.67479899940892 H 0.0 **** 0.06
17559 H 111.00036407718342 14.080196847137906 137.98572367894906 H 0.0 **** 0.06
17560 H 110.59057070491973 12.423697235345777 138.49169779263985 H 0.0 **** 0.06
17561 C 89.05679310803886 121.12174202539008 86.83500243055835 C 0.0 **** -0.24
17562 H 88.49164108231209 121.19943332120802 85.90610353680722 H 0.0 **** 0.06
17563 H 90.12149408356666 121.06243443559951 86.60811840759862 H 0.0 **** 0.06
17564 H 88.74981861498115 120.2237114247258 87.37235301969469 H 0.0 **** 0.06
17565 H 88.86463939846242 121.99871494709386 87.45214122277883 H 0.0 **** 0.06
17566 C 119.95561371974857 63.28344063786446 74.22456119395551 C 0.0 **** -0.24
17567 H 118.92947724119928 63.57010730560802 74.45399970676152 H 0.0 **** 0.06
17568 H 120.00338335790236 62.207683498983386 74.05763454672359 H 0.0 **** 0.06
17569 H 120.60167557143278 63.55011010395984 75.0610953442544 H 0.0 **** 0.06
17570 H 120.28754020964637 63.805962324493606 73.32793320702325 H 0.0 **** 0.06
17571 C 28.739044456076556 112.26641655355289 85.2321514037335 C 0.0 **** -0.24
17572 H 28.60230025165427 113.17840297668894 84.64996952694075 H 0.0 **** 0.06
17573 H 29.326722396016777 111.55220816605024 84.6558373465799 H 0.0 **** 0.06
17574 H 27.76536113337741 111.83480126812557 85.46292381816853 H 0.0 **** 0.06
17575 H 29.261230918376555 112.50316149855988 86.15939681023266 H 0.0 **** 0.06
17576 C 72.24783723272553 29.68987932547131 18.17424963767229 C 0.0 **** -0.24
17577 H 71.95752282384132 30.697299652473873 18.470944238231112 H 0.0 **** 0.06
17578 H 71.60445307723049 28.96496028948762 18.674043761345814 H 0.0 **** 0.06
17579 H 73.28557686998234 29.512117920792264 18.458939447766312 H 0.0 **** 0.06
17580 H 72.14427675846775 29.584687175599157 17.094672544481313 H 0.0 **** 0.06
17581 C 78.86575292335873 64.62053802909134 101.15789886266288 C 0.0 **** -0.24
17582 H 78.31450884020188 65.50502211611996 100.83892747013746 H 0.0 **** 0.06
17583 H 79.37461542557784 64.1801832999518 100.30055905063716 H 0.0 **** 0.06
17584 H 78.17216412364164 63.89379800267761 101.58109670828077 H 0.0 **** 0.06
17585 H 79.60037808473628 64.90231373512842 101.91171461307266 H 0.0 **** 0.06
17586 C 111.54347466624 88.19255820573281 67.08940360402732 C 0.0 **** -0.24
17587 H 111.93110366642497 87.84614011049922 66.13141605006564 H 0.0 **** 0.06
17588 H 111.27796700628534 87.33437485468176 67.70552441061983 H 0.0 **** 0.06
17589 H 110.6592413801958 88.80854583257687 66.92133308493709 H 0.0 **** 0.06
17590 H 112.30597039492176 88.78330340716866 67.5964580785473 H 0.0 **** 0.06
17591 C 55.19959637897961 13.221451589421633 47.85101509516855 C 0.0 **** -0.24
17592 H 55.69294579160777 13.614048915492958 46.96249073141993 H 0.0 **** 0.06
17593 H 55.822864259212054 13.41086430711971 48.725960205123954 H 0.0 **** 0.06
17594 H 55.04843361597182 12.147766049620998 47.73796602848432 H 0.0 **** 0.06
17595 H 54.23531369169885 13.712372444164714 47.97788297540073 H 0.0 **** 0.06
17596 C 89.70738258767331 119.92483768955572 109.37419556474488 C 0.0 **** -0.24
17597 H 90.38408162344352 119.36003994455518 108.7332713873564 H 0.0 **** 0.06
17598 H 89.72162147406618 120.97479519431039 109.07983789232675 H 0.0 **** 0.06
17599 H 90.02768685506764 119.83425560071191 110.41156864481125 H 0.0 **** 0.06
17600 H 88.69595333491058 119.53190099392168 109.26940755041532 H 0.0 **** 0.06
17601 C 89.95987414950802 36.81965182652199 112.55852004127702 C 0.0 **** -0.24
17602 H 89.377439697342 37.31275462368099 113.33657763655255 H 0.0 **** 0.06
17603 H 89.29213310293999 36.47649313870303 111.76772490660143 H 0.0 **** 0.06
17604 H 90.48688197600582 35.96674374634033 112.98519487808348 H 0.0 **** 0.06
17605 H 90.68253560797274 37.52332551071624 112.14507274209218 H 0.0 **** 0.06
17606 C 47.115356192892904 110.02994536687254 66.87070726541589 C 0.0 **** -0.24
17607 H 48.04868429515136 109.47093767173158 66.92928114641555 H 0.0 **** 0.06
17608 H 46.27560022619744 109.33504788084889 66.86451879915204 H 0.0 **** 0.06
17609 H 47.104109500481485 110.62191708213902 65.95580023449189 H 0.0 **** 0.06
17610 H 47.03432842632566 110.69219142197448 67.73276153715332 H 0.0 **** 0.06
17611 C 89.6450623227363 109.70858773791045 127.80890395815567 C 0.0 **** -0.24
17612 H 89.58305023911018 108.62289454913153 127.7421008800136 H 0.0 **** 0.06
17613 H 90.68758155392482 110.00636310163131 127.91968919245005 H 0.0 **** 0.06
17614 H 89.07426250343082 110.05180928480601 128.6715054969049 H 0.0 **** 0.06
17615 H 89.23461529470484 110.15229569143801 126.90110527777881 H 0.0 **** 0.06
17616 C 84.46851470760403 31.143235040313073 14.540746311466847 C 0.0 **** -0.24
17617 H 84.48423656293099 30.21616105139367 13.967751079463795 H 0.0 **** 0.06
17618 H 84.81886660370094 30.948801633169637 15.554661552575652 H 0.0 **** 0.06
17619 H 83.45150338643965 31.53277935350252 14.57538819618972 H 0.0 **** 0.06
17620 H 85.12154499550856 31.87457398559019 14.06470358361463 H 0.0 **** 0.06
17621 C 70.67624764039499 26.490227646012727 37.38412555541609 C 0.0 **** -0.24
17622 H 70.49713639999977 25.446385043932565 37.64018540203607 H 0.0 **** 0.06
17623 H 70.3320082661874 26.679919542455337 36.367859301814406 H 0.0 **** 0.06
17624 H 71.74271355343895 26.70262688386424 37.452906925099434 H 0.0 **** 0.06
17625 H 70.13256312416068 27.13154991300155 38.077894102874616 H 0.0 **** 0.06
17626 C 37.63470841844003 144.5928536498596 142.34399311012137 C 0.0 **** -0.24
17627 H 36.55356248003389 144.73189980840903 142.34852386041933 H 0.0 **** 0.06
17628 H 38.107310519763445 145.44406470344092 141.8531184559784 H 0.0 **** 0.06
17629 H 37.881011235892345 143.67820286861576 141.80515849291717 H 0.0 **** 0.06
17630 H 37.99606834042993 144.51896692316592 143.36968782799627 H 0.0 **** 0.06
17631 C 106.99632435696465 23.786092477369607 41.90090098315039 C 0.0 **** -0.24
17632 H 105.98950851478584 24.181411095535566 41.76247414034161 H 0.0 **** 0.06
17633 H 107.56965943191862 24.46802036129975 42.52971828183803 H 0.0 **** 0.06
17634 H 107.48401683492058 23.686431441363993 40.93233837566092 H 0.0 **** 0.06
17635 H 106.93921081298758 22.809763687325756 42.38171905080621 H 0.0 **** 0.06
17636 C 62.7522646030567 90.1141053704145 141.9156772769806 C 0.0 **** -0.24
17637 H 63.399744603982384 89.3375098295789 141.511511710653 H 0.0 **** 0.06
17638 H 62.03424370604991 90.42092800180677 141.15473917978096 H 0.0 **** 0.06
17639 H 63.35535706495784 90.97226223462071 142.21353497605224 H 0.0 **** 0.06
17640 H 62.21909130800442 89.72676281035565 142.78415980153528 H 0.0 **** 0.06
17641 C 74.674134786074 89.12423100196 60.99692057860301 C 0.0 **** -0.24
17642 H 74.33163816972002 89.62068512929048 61.90465140219284 H 0.0 **** 0.06
17643 H 73.8225238608088 88.93564920205577 60.34306383343056 H 0.0 **** 0.06
17644 H 75.14917677277553 88.17848954466413 61.25777131114381 H 0.0 **** 0.06
17645 H 75.3933968686355 89.76223717604012 60.48316666385543 H 0.0 **** 0.06
17646 C 66.37507808246073 55.623720664827445 1.8662239936017109 C 0.0 **** -0.24
17647 H 65.92925244870338 55.41341187593001 2.8380962016821414 H 0.0 **** 0.06
17648 H 65.83925930887102 55.07286985512893 1.0938222316704334 H 0.0 **** 0.06
17649 H 67.42143963313293 55.31667950521778 1.872154858598666 H 0.0 **** 0.06
17650 H 66.31196714774762 56.69270290804582 1.6617224323092792 H 0.0 **** 0.06
17651 C 53.247485594862894 67.02473578261555 121.27850706586754 C 0.0 **** -0.24
17652 H 52.85627615807198 66.25222854364335 121.93882027888428 H 0.0 **** 0.06
17653 H 54.297991704727394 66.82527631784717 121.06793234417849 H 0.0 **** 0.06
17654 H 53.15227671914886 67.99778079346723 121.76097115501203 H 0.0 **** 0.06
17655 H 52.68317984593699 67.02567567603845 120.34536662499612 H 0.0 **** 0.06
17656 C 90.5289446919924 72.46365605188562 28.287722287623573 C 0.0 **** -0.24
17657 H 90.31800541984188 71.44303965170683 28.606453628837613 H 0.0 **** 0.06
17658 H 90.9068747229854 73.03747038322544 29.13421677965099 H 0.0 **** 0.06
17659 H 89.61303816665952 72.92406337125533 27.91635419141567 H 0.0 **** 0.06
17660 H 91.27603099086349 72.44897451898699 27.49508722249457 H 0.0 **** 0.06
17661 C 107.79841647580442 34.97063358620983 66.65499177722583 C 0.0 **** -0.24
17662 H 107.73326429479722 36.049268362874926 66.50645497791098 H 0.0 **** 0.06
17663 H 108.83989788841531 34.68877249324993 66.81520339324013 H 0.0 **** 0.06
17664 H 107.41462557117872 34.458866406120194 65.77277424996291 H 0.0 **** 0.06
17665 H 107.2072995115126 34.689036444701685 67.52613163909629 H 0.0 **** 0.06
17666 C 68.96348717097084 41.3499429703581 137.6295040802299 C 0.0 **** -0.24
17667 H 68.16506623863009 40.845980373813646 137.08495967681577 H 0.0 **** 0.06
17668 H 68.74177950788388 42.4155453498268 137.69596625085256 H 0.0 **** 0.06
17669 H 69.90747178411803 41.20753398740608 137.10265812044972 H 0.0 **** 0.06
17670 H 69.04071988367465 40.931075536745254 138.63226827348413 H 0.0 **** 0.06
17671 C 77.21942954487541 2.486429589803919 25.744745415745 C 0.0 **** -0.24
17672 H 77.44413428384355 2.0204321542460946 24.785752176811002 H 0.0 **** 0.06
17673 H 76.76386313415836 1.7505233441602002 26.408292095223146 H 0.0 **** 0.06
17674 H 76.5271728019784 3.3153721036676416 25.59253874870319 H 0.0 **** 0.06
17675 H 78.1396922496655 2.860163963234129 26.192896102488135 H 0.0 **** 0.06
17676 C 123.11295973244236 114.5023412661929 136.6660037856735 C 0.0 **** -0.24
17677 H 122.05300523494085 114.29141371496411 136.51898340072148 H 0.0 **** 0.06
17678 H 123.70662542787326 113.80521521281673 136.07356707083048 H 0.0 **** 0.06
17679 H 123.36301636686042 114.38726392337571 137.71975978062434 H 0.0 **** 0.06
17680 H 123.32798558048322 115.52247387233177 136.35010635668644 H 0.0 **** 0.06
17681 C 8.660679263932405 27.865805989253744 37.672212046169136 C 0.0 **** -0.24
17682 H 9.56974311876752 27.377539270888803 38.0248995331865 H 0.0 **** 0.06
17683 H 7.798319121685616 27.443455707890536 38.187808896256946 H 0.0 **** 0.06
17684 H 8.557231162106042 27.70786252025846 36.599146249374655 H 0.0 **** 0.06
17685 H 8.72110747092627 28.93468790664545 37.878817485049694 H 0.0 **** 0.06
17686 C 128.3975229318484 61.030246774847356 30.975014999392016 C 0.0 **** -0.24
17687 H 129.23587947836853 60.558850784623985 30.462346482479887 H 0.0 **** 0.06
17688 H 127.86621962590581 61.68100119625538 30.279453757917736 H 0.0 **** 0.06
17689 H 128.76879986931502 61.62001650345472 31.813567938583617 H 0.0 **** 0.06
17690 H 127.71808695056058 60.26136145464682 31.343844283642028 H 0.0 **** 0.06
17691 C 137.85858367706618 43.36191753021771 131.894001156557 C 0.0 **** -0.24
17692 H 137.7335481400657 43.095209637692804 130.84397926923543 H 0.0 **** 0.06
17693 H 138.69689724107604 42.8036614876568 132.3113996224017 H 0.0 **** 0.06
17694 H 136.94974414546408 43.11668091202314 132.44170410181033 H 0.0 **** 0.06
17695 H 138.05591603126607 44.43010228799899 131.97563507737252 H 0.0 **** 0.06
17696 C 72.04307780721635 102.39474058500745 11.647294210715017 C 0.0 **** -0.24
17697 H 72.81909810032698 102.93931024475627 12.185384626567696 H 0.0 **** 0.06
17698 H 71.61233339077069 101.63649813876818 12.300622996452347 H 0.0 **** 0.06
17699 H 72.47807628630434 101.91585090635864 10.769777876525325 H 0.0 **** 0.06
17700 H 71.26425520336733 103.08976172935847 11.33247063376146 H 0.0 **** 0.06
17701 C 132.44865370218025 77.60966106703587 15.393475086504708 C 0.0 **** -0.24
17702 H 133.3752952960408 77.0466600186367 15.507943860476956 H 0.0 **** 0.06
17703 H 131.64921180499576 76.93450665284502 15.08834550101929 H 0.0 **** 0.06
17704 H 132.58342216607318 78.38046630203145 14.634663748244463 H 0.0 **** 0.06
17705 H 132.1876000555835 78.07660939581247 16.342993982585625 H 0.0 **** 0.06
17706 C 124.46279684316099 23.784495721912606 119.77416196758575 C 0.0 **** -0.24
17707 H 124.60913981570965 24.525235133373656 120.5605853749638 H 0.0 **** 0.06
17708 H 123.49593703771976 23.299545943856742 119.90742002738288 H 0.0 **** 0.06
17709 H 125.25488409836649 23.037215598384876 119.82741718481371 H 0.0 **** 0.06
17710 H 124.49272240068385 24.276614111122456 118.80183184572122 H 0.0 **** 0.06
17711 C 12.997568035573693 110.91956608363523 83.22197029856534 C 0.0 **** -0.24
17712 H 12.16660311896834 110.24140782615365 83.03104746853808 H 0.0 **** 0.06
17713 H 13.08888425256768 111.08769256081774 84.29534803295132 H 0.0 **** 0.06
17714 H 12.81551810067748 111.86913664750563 82.71916671706379 H 0.0 **** 0.06
17715 H 13.920319800209995 110.47826810645 82.8436592804693 H 0.0 **** 0.06
17716 C 3.6573363878373044 95.75303002265684 15.171090700761454 C 0.0 **** -0.24
17717 H 4.067701456221176 96.75947315544923 15.088582343910844 H 0.0 **** 0.06
17718 H 2.738588109562709 95.68644571365759 14.587231912123457 H 0.0 **** 0.06
17719 H 3.439941461946045 95.53392868658965 16.216499687261773 H 0.0 **** 0.06
17720 H 4.3822281570863595 95.03253615989354 14.791668202515439 H 0.0 **** 0.06
17721 C 134.1671220275859 111.13150908361004 92.21364012112858 C 0.0 **** -0.24
17722 H 135.11867113072714 111.00853929735351 92.7311926755837 H 0.0 **** 0.06
17723 H 134.3515452874152 111.37809539374715 91.16853194293685 H 0.0 **** 0.06
17724 H 133.5999498543998 111.93519727062093 92.68325477374809 H 0.0 **** 0.06
17725 H 133.59976191338035 110.20295789291461 92.27410555401916 H 0.0 **** 0.06
17726 C 7.388013061924511 97.52674936773985 43.93830732298203 C 0.0 **** -0.24
17727 H 6.308150433185688 97.48475790882569 44.082734966083734 H 0.0 **** 0.06
17728 H 7.887550145638272 97.39205144459658 44.89724425015089 H 0.0 **** 0.06
17729 H 7.659352747257998 98.4955244668258 43.51841984469711 H 0.0 **** 0.06
17730 H 7.693317964208006 96.73516377647192 43.25438185801259 H 0.0 **** 0.06
17731 C 61.600937233798845 6.842889830042793 45.25467745966813 C 0.0 **** -0.24
17732 H 61.228979496792675 7.414552807791779 46.104862599632185 H 0.0 **** 0.06
17733 H 62.640856218084195 7.108780379219496 45.065432614454465 H 0.0 **** 0.06
17734 H 61.0012233777243 7.071288254454515 44.37302311006559 H 0.0 **** 0.06
17735 H 61.53184830289146 5.777232988958502 45.474939005350194 H 0.0 **** 0.06
17736 C 106.82118945617106 28.242642890285936 119.46361167582414 C 0.0 **** -0.24
17737 H 106.53813521258456 28.78443046458898 118.5620927680143 H 0.0 **** 0.06
17738 H 107.85595671045576 27.908907143765475 119.37759923868295 H 0.0 **** 0.06
17739 H 106.16980130878517 27.376757475844386 119.58693190131116 H 0.0 **** 0.06
17740 H 106.72079249359075 28.89874794149489 120.32790704455574 H 0.0 **** 0.06
17741 C 95.34131509186986 58.483317164306186 58.908767855781974 C 0.0 **** -0.24
17742 H 95.00839849973562 57.486760943552625 58.61840576250181 H 0.0 **** 0.06
17743 H 95.28360394198276 59.150928558646896 58.049075849361145 H 0.0 **** 0.06
17744 H 96.37204616762014 58.433200412175054 59.262698284019095 H 0.0 **** 0.06
17745 H 94.70220373469431 58.861489006135216 59.707386462225415 H 0.0 **** 0.06
17746 C 73.46929036696858 124.24481340901215 26.50881222794399 C 0.0 **** -0.24
17747 H 74.11444940913088 123.57700925347929 25.938382307706917 H 0.0 **** 0.06
17748 H 72.43365067829268 123.9201885777641 26.41213744042355 H 0.0 **** 0.06
17749 H 73.56903065209093 125.26102807816282 26.126487040193922 H 0.0 **** 0.06
17750 H 73.76153414339157 124.22263386624378 27.558642469843647 H 0.0 **** 0.06
17751 C 124.96257636101271 130.18352114680405 93.66075384740536 C 0.0 **** -0.24
17752 H 125.07894772466432 129.1059105030732 93.77351410828632 H 0.0 **** 0.06
17753 H 124.44703492592934 130.39647231275788 92.72385856987037 H 0.0 **** 0.06
17754 H 125.94603281963023 130.65464883086668 93.65045598169283 H 0.0 **** 0.06
17755 H 124.3800108871331 130.57569522866612 94.49409341462511 H 0.0 **** 0.06
17756 C 13.866029231833494 69.93941115374724 19.596512583526305 C 0.0 **** -0.24
17757 H 13.252223130618063 69.12944758666998 19.99254674088138 H 0.0 **** 0.06
17758 H 14.894511694044212 69.81562122941233 19.935920574774457 H 0.0 **** 0.06
17759 H 13.478306449058522 70.89475393683057 19.951373321448273 H 0.0 **** 0.06
17760 H 13.836845078040056 69.91703995000444 18.506852665287568 H 0.0 **** 0.06
17761 C 64.2308842540518 51.525697675006455 130.64550652264916 C 0.0 **** -0.24
17762 H 64.80808967632758 50.637266881767374 130.9027642664914 H 0.0 **** 0.06
17763 H 64.87978296799986 52.24927773756271 130.15299539655328 H 0.0 **** 0.06
17764 H 63.81781121761422 51.965051235159734 131.5529931464873 H 0.0 **** 0.06
17765 H 63.417972724660856 51.24829968644448 129.9740505518624 H 0.0 **** 0.06
17766 C 119.98896088062081 9.532846896575627 14.682128893042915 C 0.0 **** -0.24
17767 H 120.46509319231363 8.575362399269668 14.4708722816749 H 0.0 **** 0.06
17768 H 119.00375882138776 9.35890914537432 15.116905314302613 H 0.0 **** 0.06
17769 H 119.8837976094692 10.097764954285154 13.756550091509354 H 0.0 **** 0.06
17770 H 120.60293992053336 10.096134813169186 15.384957011153233 H 0.0 **** 0.06
17771 C 92.28986088502685 63.44403791371214 44.24856619950066 C 0.0 **** -0.24
17772 H 92.54986133923198 64.2232398265691 43.531302588138686 H 0.0 **** 0.06
17773 H 92.73231915016952 62.498348133399304 43.93370199219078 H 0.0 **** 0.06
17774 H 91.20695892926516 63.341225502184 44.29605035552444 H 0.0 **** 0.06
17775 H 92.67324185433463 63.71507318410666 45.23260981678877 H 0.0 **** 0.06
17776 C 125.1804978115592 70.8095648455461 133.49405234222084 C 0.0 **** -0.24
17777 H 125.50257434752928 69.8009212905967 133.75149893598268 H 0.0 **** 0.06
17778 H 124.15849058966882 70.96426539010753 133.8428430573854 H 0.0 **** 0.06
17779 H 125.21937334984753 70.93929957449296 132.41310533534352 H 0.0 **** 0.06
17780 H 125.84066715312196 71.53419123320748 133.97100721207786 H 0.0 **** 0.06
17781 C 116.77305793345298 24.578367457110517 133.9573850993255 C 0.0 **** -0.24
17782 H 117.74463303598529 25.017048777697255 134.18300730722416 H 0.0 **** 0.06
17783 H 116.34052985629441 24.164467727283608 134.8680723985277 H 0.0 **** 0.06
17784 H 116.89552510236669 23.78553629062182 133.21943426591798 H 0.0 **** 0.06
17785 H 116.11146244130956 25.347491161676913 133.55734125127128 H 0.0 **** 0.06
17786 C 46.29858055933073 33.570599553039216 42.693515712118426 C 0.0 **** -0.24
17787 H 46.54648977961341 34.62752424344313 42.794079811973404 H 0.0 **** 0.06
17788 H 46.78743696045825 33.00592967368668 43.48796664289023 H 0.0 **** 0.06
17789 H 46.64149643501054 33.207979340116566 41.725147949419636 H 0.0 **** 0.06
17790 H 45.218681152726106 33.44233048662517 42.767164967281644 H 0.0 **** 0.06
17791 C 22.849202578940293 82.35366570401716 22.270849304515878 C 0.0 **** -0.24
17792 H 23.249675348040768 82.96410043831766 21.461612081686845 H 0.0 **** 0.06
17793 H 22.883540505226108 82.91854226996027 23.2025661497985 H 0.0 **** 0.06
17794 H 23.446948135245435 81.44759797111783 22.372473272462393 H 0.0 **** 0.06
17795 H 21.8169370123679 82.08523362153556 22.046238724804674 H 0.0 **** 0.06
17796 C 116.13531108204795 101.17623519531901 108.5585419924664 C 0.0 **** -0.24
17797 H 115.33157981348684 100.58368796117935 108.12190747241279 H 0.0 **** 0.06
17798 H 117.08199773467403 100.64664388853924 108.4421529086243 H 0.0 **** 0.06
17799 H 115.9354090191156 101.3347631393188 109.61847546784229 H 0.0 **** 0.06
17800 H 116.1936111139713 102.1394711645483 108.051799980941 H 0.0 **** 0.06
17801 C 135.32799448485258 79.42761833024434 92.04506830638769 C 0.0 **** -0.24
17802 H 134.62633463017036 79.17934476178094 92.8416425949435 H 0.0 **** 0.06
17803 H 135.32133883012744 80.50543555140108 91.88016629766844 H 0.0 **** 0.06
17804 H 135.03309402016055 78.91719264623556 91.12921233822902 H 0.0 **** 0.06
17805 H 136.33026535722365 79.11005267533463 92.33252273105131 H 0.0 **** 0.06
17806 C 30.58701568074042 23.870029504663933 86.29480641054118 C 0.0 **** -0.24
17807 H 31.327370951395494 24.186598498842216 87.02928787972064 H 0.0 **** 0.06
17808 H 30.39364596640729 22.80381287076591 86.41131875209436 H 0.0 **** 0.06
17809 H 30.96425802932987 24.063566538424368 85.29073543906907 H 0.0 **** 0.06
17810 H 29.66196242253585 24.42594436154519 86.4484132107068 H 0.0 **** 0.06
17811 C 31.320186985876518 29.973203592577327 99.69517526173982 C 0.0 **** -0.24
17812 H 31.252018266288076 30.32267852076093 98.6647320473452 H 0.0 **** 0.06
17813 H 31.65860549366198 28.93706692833272 99.70530579348585 H 0.0 **** 0.06
17814 H 30.33945693528554 30.041424873283823 100.16685773867317 H 0.0 **** 0.06
17815 H 32.02961209136643 30.593296682054905 100.2417668910352 H 0.0 **** 0.06
17816 C 102.49881942771037 59.24829927339027 89.60722393025853 C 0.0 **** -0.24
17817 H 101.8151008216064 58.407355902033814 89.49030934593301 H 0.0 **** 0.06
17818 H 102.67606595313326 59.71050014877051 88.63534174505972 H 0.0 **** 0.06
17819 H 103.44317050250127 58.89404717740564 90.01941242685811 H 0.0 **** 0.06
17820 H 102.05857787461812 59.98193547595682 90.28391534750014 H 0.0 **** 0.06
17821 C 117.9344910746753 80.63361567887414 2.3341981190819183 C 0.0 **** -0.24
17822 H 119.01847618475534 80.55211218458867 2.4111678249791737 H 0.0 **** 0.06
17823 H 117.52796148066159 79.70232909239962 1.9388692535198402 H 0.0 **** 0.06
17824 H 117.67854043183684 81.45505988427745 1.6649473547467437 H 0.0 **** 0.06
17825 H 117.51366716416231 80.82373238948145 3.321648258340929 H 0.0 **** 0.06
17826 C 49.10809136075633 6.570872148585806 127.51523225235977 C 0.0 **** -0.24
17827 H 49.788402565757536 7.42238790134536 127.5572150087009 H 0.0 **** 0.06
17828 H 49.68406947609466 5.645149778922331 127.53506266374848 H 0.0 **** 0.06
17829 H 48.524575780294896 6.616733596747565 126.59592916072003 H 0.0 **** 0.06
17830 H 48.437795909982896 6.600108410945609 128.37415898816272 H 0.0 **** 0.06
17831 C 112.37085949948775 64.10914602598609 87.40191853721959 C 0.0 **** -0.24
17832 H 111.93212221549382 63.2380712930743 86.91546268830768 H 0.0 **** 0.06
17833 H 112.14000986112373 65.00290498495953 86.82149946223154 H 0.0 **** 0.06
17834 H 113.45161816403308 63.98452241061668 87.46377748249697 H 0.0 **** 0.06
17835 H 111.95885230359008 64.21074616416537 88.40584501451856 H 0.0 **** 0.06
17836 C 140.41345621975444 105.13209261441247 35.49375266791773 C 0.0 **** -0.24
17837 H 139.34708475845466 104.98077221799323 35.32753918526046 H 0.0 **** 0.06
17838 H 140.88173483375303 104.17825671367288 35.7392993364048 H 0.0 **** 0.06
17839 H 140.55807690993967 105.83105668209768 36.316781178614576 H 0.0 **** 0.06
17840 H 140.86769005245333 105.5365791688616 34.58883931313861 H 0.0 **** 0.06
17841 C 79.39134356891526 67.86945855940924 56.998368216992105 C 0.0 **** -0.24
17842 H 79.39664730740165 68.94660880227956 57.166891646634724 H 0.0 **** 0.06
17843 H 80.3909841743195 67.54308975813244 56.70845092130202 H 0.0 **** 0.06
17844 H 78.68553011421172 67.63048647936122 56.202253494607135 H 0.0 **** 0.06
17845 H 79.09347880094825 67.3595239778346 57.91390639169771 H 0.0 **** 0.06
17846 C 139.21751054842423 66.52261033699816 105.2379296009391 C 0.0 **** -0.24
17847 H 139.477065851857 66.65628703920054 104.18779795378647 H 0.0 **** 0.06
17848 H 138.39662536388326 65.81011962818634 105.32208077924689 H 0.0 **** 0.06
17849 H 138.91365493024585 67.47933712096265 105.66142986388898 H 0.0 **** 0.06
17850 H 140.08408639772207 66.14454963362485 105.7806222500101 H 0.0 **** 0.06
17851 C 33.805722802665585 110.19418781733586 144.78892276281667 C 0.0 **** -0.24
17852 H 34.16735389702076 111.10962201362199 145.25879630404188 H 0.0 **** 0.06
17853 H 33.38530331170329 110.43101364815536 143.81039786682456 H 0.0 **** 0.06
17854 H 33.03679955700404 109.74424774423235 145.41576548998773 H 0.0 **** 0.06
17855 H 34.63399437999364 109.49648356690884 144.67011275138952 H 0.0 **** 0.06
17856 C 140.3943394296646 101.98621613947708 116.31686272676104 C 0.0 **** -0.24
17857 H 139.69633134653478 101.95526774073564 117.15342462216502 H 0.0 **** 0.06
17858 H 140.7084716397974 103.01604496769417 116.14451577522932 H 0.0 **** 0.06
17859 H 139.90638217402991 101.60025673253364 115.42204043438046 H 0.0 **** 0.06
17860 H 141.26617255829618 101.37329511694496 116.5474700752692 H 0.0 **** 0.06
17861 C 134.0207066767663 100.145058791577 55.77158416769913 C 0.0 **** -0.24
17862 H 134.77264702584776 99.58855755291285 55.210590358174784 H 0.0 **** 0.06
17863 H 134.34647104496773 101.17886979203605 55.88800711644603 H 0.0 **** 0.06
17864 H 133.8921447971933 99.69097012111565 56.754718578780654 H 0.0 **** 0.06
17865 H 133.07385590086136 100.11975016636669 55.23239684514729 H 0.0 **** 0.06
17866 C 35.92490041858446 30.16690964694743 55.06533989291293 C 0.0 **** -0.24
17867 H 34.99338454442682 29.649974746697467 55.29685965632447 H 0.0 **** 0.06
17868 H 36.51292665799036 29.562776386070425 54.374284142368026 H 0.0 **** 0.06
17869 H 36.49074376010293 30.323690001732928 55.98333068907252 H 0.0 **** 0.06
17870 H 35.70136924330632 31.12959019408055 54.60705961316913 H 0.0 **** 0.06
17871 C 58.46591166630003 116.51697615149334 94.8986161288073 C 0.0 **** -0.24
17872 H 58.7541252179422 115.48881111336857 94.68069302071356 H 0.0 **** 0.06
17873 H 59.139213484236336 116.93014515732455 95.65056492413086 H 0.0 **** 0.06
17874 H 57.44389728973897 116.53486960619148 95.27639822314728 H 0.0 **** 0.06
17875 H 58.527841857993394 117.11231720320717 93.98877026722303 H 0.0 **** 0.06
17876 C 9.166246698727303 93.25080278481747 9.10790355785133 C 0.0 **** -0.24
17877 H 8.248096635741742 92.85991247632538 8.669938829373422 H 0.0 **** 0.06
17878 H 9.040731350669493 93.3511780888897 10.185523411095517 H 0.0 **** 0.06
17879 H 9.387895392824106 94.2270596186988 8.675218447443598 H 0.0 **** 0.06
17880 H 9.988026632582454 92.566260643596 8.898811058160447 H 0.0 **** 0.06
17881 C 144.7886431358623 131.62623644157105 25.031343973104924 C 0.0 **** -0.24
17882 H 144.97971784673433 130.55311386453906 25.044431883668267 H 0.0 **** 0.06
17883 H 145.40731111674995 132.11315386596567 25.786853971881953 H 0.0 **** 0.06
17884 H 143.73733442220413 131.81071337923808 25.248917132576878 H 0.0 **** 0.06
17885 H 145.03317711782233 132.0260199778321 24.047704754949393 H 0.0 **** 0.06
17886 C 32.07688761126667 99.48470139897341 97.70199762601302 C 0.0 **** -0.24
17887 H 31.452522748254225 99.14710421320213 96.87464488156436 H 0.0 **** 0.06
17888 H 32.946402087882426 100.01189545379668 97.30974147362585 H 0.0 **** 0.06
17889 H 32.40548707074477 98.6224063893328 98.28295859649157 H 0.0 **** 0.06
17890 H 31.50202234270043 100.15546365469153 98.3405638466935 H 0.0 **** 0.06
17891 C 58.21744459761476 17.2641814379281 120.28694501363303 C 0.0 **** -0.24
17892 H 58.518894640994475 17.43907222583897 121.31904477544448 H 0.0 **** 0.06
17893 H 59.0521006872839 17.488124914138808 119.62176798568059 H 0.0 **** 0.06
17894 H 57.37302614215052 17.90817129687096 120.0412369925461 H 0.0 **** 0.06
17895 H 57.926125589572095 16.220424537168867 120.16473325727871 H 0.0 **** 0.06
17896 C 102.8049576546365 38.16895140776894 72.31767948089309 C 0.0 **** -0.24
17897 H 101.99929456693168 37.61116199191461 72.79488158291352 H 0.0 **** 0.06
17898 H 103.38652271459775 37.4978179234427 71.68494346755698 H 0.0 **** 0.06
17899 H 103.45222175133746 38.59813658953269 73.08256389668207 H 0.0 **** 0.06
17900 H 102.38287283533798 38.967802130152045 71.70853927281784 H 0.0 **** 0.06
17901 C 135.3145580162398 61.892941073466076 144.6117629105532 C 0.0 **** -0.24
17902 H 135.14953202603664 61.48641598163775 143.61344196313172 H 0.0 **** 0.06
17903 H 135.3210106526416 61.07854400875556 145.33778617532988 H 0.0 **** 0.06
17904 H 134.5142505640663 62.59213843650946 144.85629506047667 H 0.0 **** 0.06
17905 H 136.2721291898244 62.41161902436066 144.63957419990447 H 0.0 **** 0.06
17906 C 24.24668104063187 10.967063827667971 78.37424680543677 C 0.0 **** -0.24
17907 H 24.01195224011593 10.55440387096138 79.35694929208535 H 0.0 **** 0.06
17908 H 23.499381787149616 10.634728083219159 77.65427552933056 H 0.0 **** 0.06
17909 H 25.23173038204095 10.621484133763886 78.06184428720087 H 0.0 **** 0.06
17910 H 24.243349810361337 12.055440156559257 78.42804957829605 H 0.0 **** 0.06
17911 C 20.380065018756397 2.2529825467387923 142.0387936835322 C 0.0 **** -0.24
17912 H 20.149466269797394 2.1952037543499046 143.1021556573897 H 0.0 **** 0.06
17913 H 20.5704553077474 1.251027626285918 141.6530414192137 H 0.0 **** 0.06
17914 H 21.26428069948531 2.8725992852156708 141.89126199648658 H 0.0 **** 0.06
17915 H 19.53581578273227 2.6925143456884086 141.50745111143112 H 0.0 **** 0.06
17916 C 136.0323379315358 12.575980275505351 127.33005808483354 C 0.0 **** -0.24
17917 H 137.04606658077412 12.207284472768329 127.1775770311616 H 0.0 **** 0.06
17918 H 135.51849519412977 11.938361981948177 128.05043195423593 H 0.0 **** 0.06
17919 H 135.49360003281353 12.56032394108253 126.38207586030099 H 0.0 **** 0.06
17920 H 136.06991346569842 13.596783246586526 127.71023602317385 H 0.0 **** 0.06
17921 C 41.914059322171 28.46138053201156 32.910205296697086 C 0.0 **** -0.24
17922 H 40.8899613576836 28.75328571135401 33.14112646769078 H 0.0 **** 0.06
17923 H 42.51661129910805 28.497827443998517 33.81779586231471 H 0.0 **** 0.06
17924 H 42.32918881705979 29.14502096826766 32.170250490846314 H 0.0 **** 0.06
17925 H 41.920561740529095 27.446623876103217 32.51011453145756 H 0.0 **** 0.06
17926 C 124.19553744660195 18.448854412780136 126.80297320408773 C 0.0 **** -0.24
17927 H 124.98456784186632 18.728348583825245 127.50008573213906 H 0.0 **** 0.06
17928 H 123.97757763401913 17.38603255618679 126.90918586673666 H 0.0 **** 0.06
17929 H 124.52246719631611 18.65271470393693 125.7835788764485 H 0.0 **** 0.06
17930 H 123.29763073095032 19.02697456773877 127.01946218526027 H 0.0 **** 0.06
17931 C 101.63871657606845 143.33808355633496 55.85756723764085 C 0.0 **** -0.24
17932 H 102.19389012475625 142.42866558276674 55.62687221589039 H 0.0 **** 0.06
17933 H 100.73100139230087 143.37097946804002 55.25515135702672 H 0.0 **** 0.06
17934 H 102.25603311787152 144.20708227125746 55.63267312720632 H 0.0 **** 0.06
17935 H 101.3743783691094 143.34368879741515 56.91521122696139 H 0.0 **** 0.06
17936 C 132.21289185748418 92.10959124281896 21.445195895817264 C 0.0 **** -0.24
17937 H 132.9846492733845 91.56659507143763 21.989320400346443 H 0.0 **** 0.06
17938 H 131.23480302803105 91.6937379121922 21.68897691569643 H 0.0 **** 0.06
17939 H 132.39087467968736 92.01732586271271 20.373368414137744 H 0.0 **** 0.06
17940 H 132.24067403515423 93.16212398534651 21.728299942066982 H 0.0 **** 0.06
17941 C 37.89656140712748 51.99113269162734 107.74667222118475 C 0.0 **** -0.24
17942 H 36.95889083408554 52.48694952563585 107.49443129373927 H 0.0 **** 0.06
17943 H 37.87060054507759 51.67444615826844 108.78952244392204 H 0.0 **** 0.06
17944 H 38.72491725574662 52.68326101635682 107.59629318460097 H 0.0 **** 0.06
17945 H 38.03000877760701 51.119272283253 107.10492679067087 H 0.0 **** 0.06
17946 C 25.490359432594175 135.56056458690549 68.08775216429233 C 0.0 **** -0.24
17947 H 24.834552488938982 135.73082813086938 67.23460304267238 H 0.0 **** 0.06
17948 H 24.933225141010155 135.7196925676791 69.01148459448713 H 0.0 **** 0.06
17949 H 26.330184144442285 136.2549151029553 68.0442462579968 H 0.0 **** 0.06
17950 H 25.86305431190027 134.53691740044667 68.05977295127686 H 0.0 **** 0.06
17951 C 9.272712317788205 71.64492008217914 21.295408107396497 C 0.0 **** -0.24
17952 H 9.74164325701122 72.55567472152387 20.922602972556838 H 0.0 **** 0.06
17953 H 8.569060566524115 71.26891363280455 20.55230025102847 H 0.0 **** 0.06
17954 H 8.74072839921348 71.86449690449338 22.221648395503784 H 0.0 **** 0.06
17955 H 10.039198999085102 70.89351012686467 21.485755562670192 H 0.0 **** 0.06
17956 C 127.28358553569299 10.456289343647995 33.574258189212145 C 0.0 **** -0.24
17957 H 126.89253565993653 10.065500531792452 34.51350788101225 H 0.0 **** 0.06
17958 H 127.40659642651633 11.536959718800631 33.65404422652693 H 0.0 **** 0.06
17959 H 126.58691245616347 10.227768265725274 32.767813754668104 H 0.0 **** 0.06
17960 H 128.2490200879447 9.995074917734883 33.362873860005855 H 0.0 **** 0.06
17961 C 103.94744143179116 125.67224161965845 45.92994363438764 C 0.0 **** -0.24
17962 H 104.0353002083838 124.89691084874067 45.16844054477383 H 0.0 **** 0.06
17963 H 103.21496376928843 126.41393214050265 45.61099449617437 H 0.0 **** 0.06
17964 H 104.91531097352473 126.15320028702516 46.07107904079513 H 0.0 **** 0.06
17965 H 103.62505484888722 125.22286701687969 46.86942076066906 H 0.0 **** 0.06
17966 C 84.22115270564518 103.3804820838273 130.34279957999127 C 0.0 **** -0.24
17967 H 83.8136250692441 102.64541730446354 129.6478989080741 H 0.0 **** 0.06
17968 H 84.49171139198302 104.28405389300002 129.7964701188553 H 0.0 **** 0.06
17969 H 85.10725275283346 102.9686476406539 130.82672626031962 H 0.0 **** 0.06
17970 H 83.47280918374133 103.62016948972195 131.09725153628528 H 0.0 **** 0.06
17971 C 97.36868850112315 64.05484221178278 78.54434142245401 C 0.0 **** -0.24
17972 H 98.01359341871704 64.9337615768282 78.56567980090506 H 0.0 **** 0.06
17973 H 96.57388695869744 64.16891857861543 79.28165953453649 H 0.0 **** 0.06
17974 H 97.9572698656362 63.167588731659635 78.77706684632945 H 0.0 **** 0.06
17975 H 96.93107917603652 63.95042363085827 77.55151327245098 H 0.0 **** 0.06
17976 C 24.793696945148156 53.26088046876853 90.03244969317382 C 0.0 **** -0.24
17977 H 23.76090478120139 52.914038861348445 90.08077353744108 H 0.0 **** 0.06
17978 H 25.46677622404033 52.40832964047419 90.12376382640156 H 0.0 **** 0.06
17979 H 24.98019719185166 53.96067621439067 90.84753343231677 H 0.0 **** 0.06
17980 H 24.965072943665916 53.759798011083234 89.07813502339718 H 0.0 **** 0.06
17981 C 59.21358189012595 30.01059558858377 76.11898255721593 C 0.0 **** -0.24
17982 H 58.546937679423664 30.087703260452543 76.97782933881523 H 0.0 **** 0.06
17983 H 58.703724426516274 30.37956643910111 75.22967342929289 H 0.0 **** 0.06
17984 H 59.49614825507501 28.968310882388522 75.97050446668243 H 0.0 **** 0.06
17985 H 60.10878354847999 30.607150913649434 76.29943118349891 H 0.0 **** 0.06
17986 C 64.9995752469261 127.15355294447768 32.40186647252176 C 0.0 **** -0.24
17987 H 64.84783385038918 128.2201064387275 32.56789987296801 H 0.0 **** 0.06
17988 H 66.06745722903896 126.93598044430621 32.38925038462611 H 0.0 **** 0.06
17989 H 64.55834536040045 126.86727422057405 31.44691642341965 H 0.0 **** 0.06
17990 H 64.52371795998913 126.59031524442744 33.205594100486024 H 0.0 **** 0.06
17991 C 4.966850119586553 116.75005681942508 12.971389296164752 C 0.0 **** -0.24
17992 H 5.3658775650726795 115.85631500601727 13.450646582915326 H 0.0 **** 0.06
17993 H 5.668154940189936 117.57471218204932 13.098656640852617 H 0.0 **** 0.06
17994 H 4.01192557234188 117.0110653352395 13.427451304718971 H 0.0 **** 0.06
17995 H 4.820046589116572 116.55772290283579 11.907863390902108 H 0.0 **** 0.06
17996 C 62.16585947044693 10.428651508448723 1.1067616074886892 C 0.0 **** -0.24
17997 H 62.505327057234155 9.624867683282979 1.7598115307752167 H 0.0 **** 0.06
17998 H 63.00929367370864 11.070795676857458 0.8512316708617789 H 0.0 **** 0.06
17999 H 61.40478597438761 11.016257347517893 1.6205547809991465 H 0.0 **** 0.06
18000 H 61.74377390224855 10.003502233202177 0.19657386288276868 H 0.0 **** 0.06
18001 C 100.30113588557575 143.28392310932858 43.70498246061868 C 0.0 **** -0.24
18002 H 101.17902159619584 143.92932492469507 43.68244235894309 H 0.0 **** 0.06
18003 H 99.43755923129763 143.85641035977437 44.043978951420854 H 0.0 **** 0.06
18004 H 100.47799551166085 142.4540070043474 44.389871409223076 H 0.0 **** 0.06
18005 H 100.11069937994588 142.89513907099635 42.70498107283868 H 0.0 **** 0.06
18006 C 25.980200441851615 74.52572291924118 133.07694344184787 C 0.0 **** -0.24
18007 H 25.213772219041644 75.30001722407587 133.08203811918918 H 0.0 **** 0.06
18008 H 26.52224669726113 74.5452909210535 134.02241678751193 H 0.0 **** 0.06
18009 H 26.674267593088835 74.70767572729761 132.25615852480087 H 0.0 **** 0.06
18010 H 25.511709211085204 73.55099558612673 132.9465347654891 H 0.0 **** 0.06
18011 C 80.54446749679865 52.72319162880855 11.463861651758926 C 0.0 **** -0.24
18012 H 80.37918408762893 53.165899238882616 10.481032921171938 H 0.0 **** 0.06
18013 H 81.55063355982001 52.96701880779027 11.807332364816006 H 0.0 **** 0.06
18014 H 80.43603848449838 51.64043085066454 11.396044468759875 H 0.0 **** 0.06
18015 H 79.81380507470998 53.11876827531583 12.168512902235179 H 0.0 **** 0.06
18016 C 39.37917463826989 109.38975309672024 104.46003750879765 C 0.0 **** -0.24
18017 H 40.354632139566235 108.9845845968217 104.19256413110514 H 0.0 **** 0.06
18018 H 38.95343664185276 109.90838056671707 103.60057044281217 H 0.0 **** 0.06
18019 H 39.490700658389 110.09025764796841 105.28859787765799 H 0.0 **** 0.06
18020 H 38.71792190725668 108.5764474583378 104.75917069832167 H 0.0 **** 0.06
18021 C 0.4791824788633221 49.324464893109464 69.30705662789188 C 0.0 **** -0.24
18022 H 0.18976273648092956 50.084226033608815 70.03340925560303 H 0.0 **** 0.06
18023 H -0.3622138339838443 49.1155292866146 68.64611482372476 H 0.0 **** 0.06
18024 H 0.7663097556907132 48.41270026855855 69.82935158754977 H 0.0 **** 0.06
18025 H 1.3220311854457236 49.68770449764391 68.71930418826753 H 0.0 **** 0.06
18026 C 90.00292332509889 94.17351363688435 91.73624095819848 C 0.0 **** -0.24
18027 H 90.73603003804442 94.95561789442986 91.93801422279152 H 0.0 **** 0.06
18028 H 88.99939595989073 94.56618151652928 91.90194758664394 H 0.0 **** 0.06
18029 H 90.17902576904305 93.33060078595665 92.40354725595951 H 0.0 **** 0.06
18030 H 90.09905944621732 93.84458561612726 90.70177632574394 H 0.0 **** 0.06
18031 C 116.34026310540754 25.257328399442073 82.30538856614174 C 0.0 **** -0.24
18032 H 115.55214288490454 24.881943365146398 81.6524440793873 H 0.0 **** 0.06
18033 H 116.66155993460525 24.462988423308907 82.98064062036528 H 0.0 **** 0.06
18034 H 115.9612641090405 26.097005727669917 82.88731520086434 H 0.0 **** 0.06
18035 H 117.18650236777616 25.585301599942575 81.70187752338698 H 0.0 **** 0.06
18036 C 113.32056399172535 145.1896406196563 82.35740198833639 C 0.0 **** -0.24
18037 H 114.06856192881651 144.46322337583484 82.03817947444998 H 0.0 **** 0.06
18038 H 112.99742533943123 145.77931005830075 81.49978771586251 H 0.0 **** 0.06
18039 H 113.75411119123362 145.84961693803388 83.10944322715864 H 0.0 **** 0.06
18040 H 112.46473945834668 144.6663365405595 82.78427799248516 H 0.0 **** 0.06
18041 C 128.56109642666254 36.181471184959115 112.2541216622178 C 0.0 **** -0.24
18042 H 127.94424440565675 37.061207559771425 112.4372265110094 H 0.0 **** 0.06
18043 H 128.95643699013013 35.81226121861842 113.20086226666923 H 0.0 **** 0.06
18044 H 129.38724943492716 36.446995685662216 111.59478500481468 H 0.0 **** 0.06
18045 H 127.95726084076827 35.40539459870005 111.78477469628798 H 0.0 **** 0.06
18046 C 121.7133843321472 82.03944605256444 67.83592947357292 C 0.0 **** -0.24
18047 H 121.21485600928986 81.34807532070403 68.51579265585391 H 0.0 **** 0.06
18048 H 122.5606795885272 82.49991701742323 68.34502983712841 H 0.0 **** 0.06
18049 H 121.0120653862304 82.81274567029746 67.5240299851034 H 0.0 **** 0.06
18050 H 122.06769468279992 81.49468966060476 66.96040016065061 H 0.0 **** 0.06
18051 C 143.2137940218465 51.12788869269403 37.93723890432251 C 0.0 **** -0.24
18052 H 143.26341862933384 51.991218960908014 38.600961853059395 H 0.0 **** 0.06
18053 H 142.17206773346567 50.914970704385894 37.69725105540498 H 0.0 **** 0.06
18054 H 143.65685491324209 50.26441995497299 38.43226883368453 H 0.0 **** 0.06
18055 H 143.76252195753295 51.34261465536747 37.02094678216696 H 0.0 **** 0.06
18056 C 30.36525165428779 107.7036242479575 92.32624735937566 C 0.0 **** -0.24
18057 H 29.864095086959566 108.6403743656697 92.07989139149811 H 0.0 **** 0.06
18058 H 29.63345326424701 106.89511238265975 92.34140108147841 H 0.0 **** 0.06
18059 H 30.833412336455353 107.7882959795502 93.30647035936795 H 0.0 **** 0.06
18060 H 31.126656959149784 107.49107860488398 91.57660801005034 H 0.0 **** 0.06
18061 C 74.58647066784935 128.9220760342228 110.25255597747555 C 0.0 **** -0.24
18062 H 74.77765163428934 129.5304505471453 111.1361781582573 H 0.0 **** 0.06
18063 H 73.53010241451432 128.98620165497283 109.98975004565231 H 0.0 **** 0.06
18064 H 74.8462489861059 127.8840450085493 110.46360283023286 H 0.0 **** 0.06
18065 H 75.19093242280658 129.28636823599476 109.4219453163722 H 0.0 **** 0.06
18066 C 118.33357472352338 67.92019745397374 43.48331837805256 C 0.0 **** -0.24
18067 H 118.22131043546489 67.25829862909893 42.624307555081714 H 0.0 **** 0.06
18068 H 117.3651938300909 68.35528186880526 43.73470053248951 H 0.0 **** 0.06
18069 H 119.03687161934141 68.71598493454076 43.23879917494759 H 0.0 **** 0.06
18070 H 118.708633166131 67.35188530885262 44.33394304720801 H 0.0 **** 0.06
18071 C 63.5216520716089 22.6760695296558 54.76977714627441 C 0.0 **** -0.24
18072 H 62.94553192658941 22.178549967570362 53.99043081485816 H 0.0 **** 0.06
18073 H 64.32963129824465 22.022845738172386 55.09723719793686 H 0.0 **** 0.06
18074 H 62.87027151834887 22.901186173923477 55.613999717365814 H 0.0 **** 0.06
18075 H 63.93936199747162 23.602702359212984 54.37660047268854 H 0.0 **** 0.06
18076 C 68.8072939409171 22.647612911582087 63.5205985241283 C 0.0 **** -0.24
18077 H 69.38967662168949 21.72651312113439 63.5266371500245 H 0.0 **** 0.06
18078 H 69.37468679097202 23.439363726200924 64.01018806153019 H 0.0 **** 0.06
18079 H 67.86985663747986 22.488019040003508 64.05384613730655 H 0.0 **** 0.06
18080 H 68.59509381875364 22.936069597162813 62.49085983554397 H 0.0 **** 0.06
18081 C 144.54517382480623 82.73102660762851 143.1897131171565 C 0.0 **** -0.24
18082 H 144.67271767733098 83.8133886179532 143.1872786417093 H 0.0 **** 0.06
18083 H 144.3633218466997 82.38989013594775 144.20881991170796 H 0.0 **** 0.06
18084 H 145.44821364911292 82.25886978763981 142.80269901737068 H 0.0 **** 0.06
18085 H 143.6965339154388 82.46437713485815 142.5596819552773 H 0.0 **** 0.06
18086 C 40.01441160809662 82.20238040209637 98.69272785737175 C 0.0 **** -0.24
18087 H 41.047681603562125 82.40343209501927 98.40973098105292 H 0.0 **** 0.06
18088 H 39.81082370897161 81.1365217677195 98.59054063507833 H 0.0 **** 0.06
18089 H 39.34357346866307 82.76528533310841 98.04298701126905 H 0.0 **** 0.06
18090 H 39.8562648365334 82.50585589863292 99.7274573407048 H 0.0 **** 0.06
18091 C 64.674789767913 9.247672940622465 22.65849174313729 C 0.0 **** -0.24
18092 H 65.23442008521803 9.576108279560003 23.53442897953238 H 0.0 **** 0.06
18093 H 63.7567143668915 9.830973162961527 22.575356981827042 H 0.0 **** 0.06
18094 H 64.42567000126382 8.191163595580974 22.761648311409033 H 0.0 **** 0.06
18095 H 65.28070380596628 9.39372500582084 21.764687046184008 H 0.0 **** 0.06
18096 C 55.22734787504645 128.72993667130189 125.70029673504602 C 0.0 **** -0.24
18097 H 55.14820593802193 127.84157115641908 125.07418401776422 H 0.0 **** 0.06
18098 H 54.22841564141734 129.0906234940661 125.94762920356604 H 0.0 **** 0.06
18099 H 55.7721605961073 129.50564447077986 125.1637155821829 H 0.0 **** 0.06
18100 H 55.76117386148279 128.47973309943083 126.61829509067567 H 0.0 **** 0.06
18101 C 96.29173095205513 63.52768260594294 37.777941328604186 C 0.0 **** -0.24
18102 H 96.10564151607454 62.45608393790715 37.84685355836787 H 0.0 **** 0.06
18103 H 96.0006982935079 64.00849245481302 38.711777914809126 H 0.0 **** 0.06
18104 H 95.70840725522004 63.94526463191599 36.956297437219675 H 0.0 **** 0.06
18105 H 97.35259008007475 63.70191613072561 37.59489341831221 H 0.0 **** 0.06
18106 C 125.88870944272546 104.57804977379317 119.66710714023407 C 0.0 **** -0.24
18107 H 126.81436944610996 105.01190495745941 120.04516683122216 H 0.0 **** 0.06
18108 H 125.05247350599458 105.23051363415827 119.92076304803584 H 0.0 **** 0.06
18109 H 125.73588409476847 103.59835100282051 120.11842584477074 H 0.0 **** 0.06
18110 H 125.95252362775986 104.47362145353807 118.58423117775965 H 0.0 **** 0.06
18111 C 1.601853792943956 113.7925624977372 70.616742178825 C 0.0 **** -0.24
18112 H 0.819863383888844 114.22696730264245 71.2396068232709 H 0.0 **** 0.06
18113 H 2.4324572110987503 114.49398780027455 70.53608601756672 H 0.0 **** 0.06
18114 H 1.2026091788540612 113.58674024277359 69.62355597412561 H 0.0 **** 0.06
18115 H 1.9512516158174265 112.86376990060485 71.06775256802378 H 0.0 **** 0.06
18116 C 56.61525697177193 26.71092811433268 86.64537436047232 C 0.0 **** -0.24
18117 H 57.526533800325865 26.658071890287594 87.23930749210884 H 0.0 **** 0.06
18118 H 55.981618546991456 25.85407173461853 86.8766370570064 H 0.0 **** 0.06
18119 H 56.87092632487371 26.69789264498948 85.5852384198411 H 0.0 **** 0.06
18120 H 56.08138503769413 27.631972212620695 86.87864760880903 H 0.0 **** 0.06
18121 C 2.939943957377892 133.7193688113952 17.137847238964696 C 0.0 **** -0.24
18122 H 3.6114510772227106 134.4126166499004 16.631046952735176 H 0.0 **** 0.06
18123 H 3.4970085162928513 132.8367600874597 17.451470891707118 H 0.0 **** 0.06
18124 H 2.141857902618625 133.42425287672862 16.45654397654647 H 0.0 **** 0.06
18125 H 2.5083989423693254 134.20660525944825 18.012839518879517 H 0.0 **** 0.06
18126 C 6.275386876364649 25.987821671204017 65.78357072919394 C 0.0 **** -0.24
18127 H 6.082055502791519 26.69376859020062 64.97590630499269 H 0.0 **** 0.06
18128 H 5.332738316344063 25.69971770691913 66.24789567417588 H 0.0 **** 0.06
18129 H 6.919770523140755 26.456085664016058 66.52833948013816 H 0.0 **** 0.06
18130 H 6.769285407602524 25.10339670671584 65.3812081853574 H 0.0 **** 0.06
18131 C 79.19794754171005 56.208455780643774 135.05606420919474 C 0.0 **** -0.24
18132 H 80.18423301710448 56.175650821663226 134.59302781965687 H 0.0 **** 0.06
18133 H 78.52971363132548 56.81467927252555 134.44443571357004 H 0.0 **** 0.06
18134 H 79.2786237870942 56.64645916448633 136.05093720446206 H 0.0 **** 0.06
18135 H 78.8009523141987 55.19579053820979 135.1351834058519 H 0.0 **** 0.06
18136 C 114.42206225716038 30.965947700175462 56.74830399531706 C 0.0 **** -0.24
18137 H 113.72995353123346 30.14658896928526 56.93932918605961 H 0.0 **** 0.06
18138 H 115.2497073951159 30.608501992378905 56.135284413349865 H 0.0 **** 0.06
18139 H 114.80787530520908 31.344591409376505 57.69513352398437 H 0.0 **** 0.06
18140 H 113.89992905474375 31.76700426429676 56.22348567593386 H 0.0 **** 0.06
18141 C 95.67035003972643 113.48914375177156 72.87853880544353 C 0.0 **** -0.24
18142 H 95.0378561937556 112.87916261672154 73.52420860183926 H 0.0 **** 0.06
18143 H 95.45894438399239 113.25347174055383 71.83544904152345 H 0.0 **** 0.06
18144 H 96.71784573578384 113.27888527679244 73.09381542668356 H 0.0 **** 0.06
18145 H 95.46601600408005 114.54380773481836 73.06238485767895 H 0.0 **** 0.06
18146 C 96.93017471615498 52.12092065077752 42.855303738123894 C 0.0 **** -0.24
18147 H 96.93392706901922 51.06157539831675 42.59753741535866 H 0.0 **** 0.06
18148 H 95.95546695454162 52.39268519116082 43.2608585714698 H 0.0 **** 0.06
18149 H 97.13018800761026 52.711362258321856 41.961336023521355 H 0.0 **** 0.06
18150 H 97.70172761996164 52.31595301678041 43.600392596010835 H 0.0 **** 0.06
18151 C 101.46836944616825 29.239901279920275 87.58134755172274 C 0.0 **** -0.24
18152 H 102.35514802010175 29.56723831552165 87.03862098954659 H 0.0 **** 0.06
18153 H 101.48403999758932 29.657997973556633 88.58859903506234 H 0.0 **** 0.06
18154 H 101.45937780277478 28.1520457534138 87.63875263503644 H 0.0 **** 0.06
18155 H 100.57496041131674 29.58381520651409 87.0585392910182 H 0.0 **** 0.06
18156 C 100.85008855542671 89.45237141092055 50.38037548291325 C 0.0 **** -0.24
18157 H 101.89696725369568 89.19252208053545 50.22309796429951 H 0.0 **** 0.06
18158 H 100.51236659030302 89.03774457040679 51.330052450699384 H 0.0 **** 0.06
18159 H 100.24806704519747 89.04148467993983 49.569391433068915 H 0.0 **** 0.06
18160 H 100.74389421605973 90.53748278721241 50.39873311066127 H 0.0 **** 0.06
18161 C 31.166660658519312 120.42880376983003 8.511957154628846 C 0.0 **** -0.24
18162 H 31.443238212011337 120.76168454369282 7.510823693018125 H 0.0 **** 0.06
18163 H 30.162680700662726 120.78411876561485 8.747801320597262 H 0.0 **** 0.06
18164 H 31.874096033687145 120.83064873009785 9.236325604397592 H 0.0 **** 0.06
18165 H 31.186000420332157 119.33960154127358 8.550250492071115 H 0.0 **** 0.06
18166 C 0.7618975433974242 16.718247576748382 81.29288055197881 C 0.0 **** -0.24
18167 H 0.23163461267824914 15.870458711078555 80.85859933153205 H 0.0 **** 0.06
18168 H 1.6648815186612183 16.91621792479262 80.71496308540964 H 0.0 **** 0.06
18169 H 1.0319126045874896 16.48795387598736 82.3229866286014 H 0.0 **** 0.06
18170 H 0.11745247006138015 17.597430203469287 81.27387066181272 H 0.0 **** 0.06
18171 C 16.928944027228027 143.1759449777466 45.78179948710172 C 0.0 **** -0.24
18172 H 17.850978608949305 143.26067385872435 45.20717689989206 H 0.0 **** 0.06
18173 H 16.44572191118175 142.22548732020076 45.55507601715664 H 0.0 **** 0.06
18174 H 16.25991074065618 143.99611081617223 45.517777825878326 H 0.0 **** 0.06
18175 H 17.15837303794811 143.22401680474994 46.845725364133784 H 0.0 **** 0.06
18176 C 36.93934208562888 62.71729321647031 6.4396175883198055 C 0.0 **** -0.24
18177 H 35.97754532891868 62.992273663649556 6.87134273592622 H 0.0 **** 0.06
18178 H 36.843079728991114 62.63784682145486 5.356398422079508 H 0.0 **** 0.06
18179 H 37.259603401397214 61.75808942651342 6.847099735965884 H 0.0 **** 0.06
18180 H 37.67844244853343 63.480899449914176 6.684176613888354 H 0.0 **** 0.06
18181 C 72.52022799011883 72.68893132477089 62.557229750001824 C 0.0 **** -0.24
18182 H 73.1723153481608 73.30185206329597 61.93538723032165 H 0.0 **** 0.06
18183 H 71.48053929798226 72.87785225001261 62.291466382164856 H 0.0 **** 0.06
18184 H 72.67924754834473 72.93996334754144 63.60661702927624 H 0.0 **** 0.06
18185 H 72.75150395417495 71.63533411742088 62.39655210675963 H 0.0 **** 0.06
18186 C 129.78125814776698 67.4229507018573 111.1058012002923 C 0.0 **** -0.24
18187 H 128.78111965564202 67.0240854500077 111.27317913361797 H 0.0 **** 0.06
18188 H 130.52263928328864 66.68868767485867 111.42224985578083 H 0.0 **** 0.06
18189 H 129.90732427497693 68.33958880871171 111.68239102820688 H 0.0 **** 0.06
18190 H 129.9126411203509 67.63965591524794 110.04587703216147 H 0.0 **** 0.06
18191 C 98.3816832184889 95.91892263992588 118.00596069566713 C 0.0 **** -0.24
18192 H 97.35834671591911 95.58119831736863 117.84335207336464 H 0.0 **** 0.06
18193 H 98.9364554644796 95.15232338850385 118.5460664242945 H 0.0 **** 0.06
18194 H 98.37200058307438 96.84001195703505 118.58874420123944 H 0.0 **** 0.06
18195 H 98.85989359942216 96.10382368868478 117.04339517213118 H 0.0 **** 0.06
18196 C 31.67079580236443 5.777671524630506 16.087191045645312 C 0.0 **** -0.24
18197 H 30.931676144527614 6.229449612250136 16.74954792205716 H 0.0 **** 0.06
18198 H 32.50567187468431 6.465611321621964 15.95326315099311 H 0.0 **** 0.06
18199 H 31.212224453593265 5.568808792927456 15.120686740857138 H 0.0 **** 0.06
18200 H 32.03215824087762 4.847551766379041 16.526799231724794 H 0.0 **** 0.06
18201 C 68.22194883164202 8.50252931666435 49.201966382020586 C 0.0 **** -0.24
18202 H 68.30917944947943 7.685540273114643 48.48496870774733 H 0.0 **** 0.06
18203 H 69.18882517494849 8.993136794094355 49.31127013147987 H 0.0 **** 0.06
18204 H 67.90343220070115 8.10663189608422 50.165987263199014 H 0.0 **** 0.06
18205 H 67.48649774913807 9.222592360168555 48.843621853112225 H 0.0 **** 0.06
18206 C 48.8454408266102 114.88992975335425 75.54124889652708 C 0.0 **** -0.24
18207 H 48.074521322521235 115.38967214591669 76.12889301650026 H 0.0 **** 0.06
18208 H 48.40567452484444 114.04759220233105 75.0058705163803 H 0.0 **** 0.06
18209 H 49.63019693580398 114.52845168659282 76.20596489891635 H 0.0 **** 0.06
18210 H 49.27058180470121 115.59408796460751 74.82635782855718 H 0.0 **** 0.06
18211 C 100.88548296659813 71.76729661636642 84.98438576052826 C 0.0 **** -0.24
18212 H 100.553740970448 70.73972374097046 85.13175302804555 H 0.0 **** 0.06
18213 H 100.80621955700198 72.31433653117803 85.92404503764553 H 0.0 **** 0.06
18214 H 100.25959869665311 72.24564746934759 84.23019527187134 H 0.0 **** 0.06
18215 H 101.92316782148869 71.76931999686241 84.64883993607319 H 0.0 **** 0.06
18216 C 23.831936625172865 18.274244305159286 135.05490441024034 C 0.0 **** -0.24
18217 H 24.681230079403917 17.608880034329275 134.8976659299938 H 0.0 **** 0.06
18218 H 23.846713013584704 19.064805565186305 134.3047734615673 H 0.0 **** 0.06
18219 H 23.89715094070894 18.715399826315064 136.04914068192693 H 0.0 **** 0.06
18220 H 22.905135889004548 17.70650474466555 134.96899103491563 H 0.0 **** 0.06
18221 C 99.25958010776658 123.69592462781203 31.367064349848903 C 0.0 **** -0.24
18222 H 98.81447330577915 123.2919457319035 32.27680712666799 H 0.0 **** 0.06
18223 H 98.77270554435464 124.6374037360942 31.112725706946748 H 0.0 **** 0.06
18224 H 99.12585238767797 122.9850905432425 30.551283912393856 H 0.0 **** 0.06
18225 H 100.32356760534162 123.8683376475458 31.52891998698422 H 0.0 **** 0.06
18226 C 99.27169531072764 3.5925369547580317 135.42667582978143 C 0.0 **** -0.24
18227 H 99.61545589770871 3.026342809534924 136.29255039456004 H 0.0 **** 0.06
18228 H 98.6458052824907 2.9565616912317125 134.80162864750986 H 0.0 **** 0.06
18229 H 100.13268945101005 3.933088160771433 134.8520256431619 H 0.0 **** 0.06
18230 H 98.6947092066044 4.454415006990928 135.76204899563248 H 0.0 **** 0.06
18231 C 76.18407330346774 69.07031419147438 122.56112347677791 C 0.0 **** -0.24
18232 H 76.8016384162927 68.34349691932428 122.03336985635073 H 0.0 **** 0.06
18233 H 75.90817130597046 68.67216344567476 123.53771498801055 H 0.0 **** 0.06
18234 H 75.28175184641374 69.26932153181417 121.98142697102824 H 0.0 **** 0.06
18235 H 76.74352338987285 69.99679853332376 122.69017485259744 H 0.0 **** 0.06
18236 C 57.45978036422265 86.63758817990262 48.68865982465701 C 0.0 **** -0.24
18237 H 58.51523274472807 86.76720033921741 48.44640599779585 H 0.0 **** 0.06
18238 H 56.8538903510415 86.88791071393368 47.81776785528858 H 0.0 **** 0.06
18239 H 57.193867343408854 87.29245283765549 49.51777042817585 H 0.0 **** 0.06
18240 H 57.277990705156284 85.60066113325446 48.971687611095504 H 0.0 **** 0.06
18241 C 85.62562133821065 100.2202290847863 43.29088277973949 C 0.0 **** -0.24
18242 H 86.22455622154338 101.1111156606133 43.103810654104734 H 0.0 **** 0.06
18243 H 85.91175224389544 99.78455477363879 44.24782210166916 H 0.0 **** 0.06
18244 H 85.79660559337677 99.4942103343721 42.49571545269475 H 0.0 **** 0.06
18245 H 84.56994505555546 100.49102507624448 43.31525542147472 H 0.0 **** 0.06
18246 C 90.53642972614531 2.961859099660728 113.35932013671392 C 0.0 **** -0.24
18247 H 91.06019574843052 3.6076533268259823 112.65442094282871 H 0.0 **** 0.06
18248 H 89.63423028375158 3.4636449333845007 113.71053671303012 H 0.0 **** 0.06
18249 H 91.18700286655815 2.7477761443304303 114.20741564085354 H 0.0 **** 0.06
18250 H 90.26516663594495 2.02981079012568 112.86527144897256 H 0.0 **** 0.06
18251 C 65.08715540939579 108.9260165761094 87.76882826411509 C 0.0 **** -0.24
18252 H 64.78876622555764 109.29100762106312 86.78618167585222 H 0.0 **** 0.06
18253 H 64.22501736225037 108.93678674514494 88.43662983819848 H 0.0 **** 0.06
18254 H 65.86932481135112 109.56922426074938 88.17273892424083 H 0.0 **** 0.06
18255 H 65.465409179253 107.9069524369247 87.67835542653671 H 0.0 **** 0.06
18256 C 145.0877347282847 56.83969969469942 115.1704631571722 C 0.0 **** -0.24
18257 H 144.11011821064557 56.55802977359204 114.77936100507806 H 0.0 **** 0.06
18258 H 145.84385772927845 56.15824722766027 114.78004996927372 H 0.0 **** 0.06
18259 H 145.07340745032553 56.78297467684351 116.25910355597684 H 0.0 **** 0.06
18260 H 145.32103046237944 57.85817579482995 114.86247555400412 H 0.0 **** 0.06
18261 C 30.858875459108987 60.50537223684053 28.350908534787976 C 0.0 **** -0.24
18262 H 30.654289590395578 61.31980690700048 29.045272741655353 H 0.0 **** 0.06
18263 H 31.89218785984947 60.179169882241 28.466313797810756 H 0.0 **** 0.06
18264 H 30.697620624479015 60.84927279878195 27.3289314290367 H 0.0 **** 0.06
18265 H 30.18935693102273 59.671356181578076 28.562601899215053 H 0.0 **** 0.06
18266 C 41.774063436792005 81.68631635354431 17.46996028402834 C 0.0 **** -0.24
18267 H 42.392130973277546 82.45965676678169 17.926391039639284 H 0.0 **** 0.06
18268 H 42.020762526013385 81.60366197496614 16.41139015573477 H 0.0 **** 0.06
18269 H 40.722362167813706 81.95039900170524 17.57891290676472 H 0.0 **** 0.06
18270 H 41.96279533422589 80.73237055708287 17.962842222156056 H 0.0 **** 0.06
18271 C 59.396524440000576 90.98458079565592 35.845816008092896 C 0.0 **** -0.24
18272 H 58.786033165678376 91.59934021748195 36.508058562869216 H 0.0 **** 0.06
18273 H 59.190823930615664 89.93111977405128 36.0370124952369 H 0.0 **** 0.06
18274 H 60.451247528290125 91.18922179405398 36.0317977287396 H 0.0 **** 0.06
18275 H 59.15701702167593 91.22016243096326 34.80951521758052 H 0.0 **** 0.06
18276 C 34.24227514333819 12.062898104180597 51.32143892953651 C 0.0 **** -0.24
18277 H 33.250858344546145 12.474804807953205 51.50716305208458 H 0.0 **** 0.06
18278 H 34.38328991141401 11.92270648606177 50.249962368937815 H 0.0 **** 0.06
18279 H 34.337979807823274 11.103215039676464 51.82979407115356 H 0.0 **** 0.06
18280 H 34.99831369782714 12.750715497942963 51.700880437378316 H 0.0 **** 0.06
18281 C 135.50711156998977 89.97954728921565 15.008371537871376 C 0.0 **** -0.24
18282 H 135.2868167540714 89.2696085750573 15.805387910644995 H 0.0 **** 0.06
18283 H 136.52701015606397 90.34712921638283 15.121346296469163 H 0.0 **** 0.06
18284 H 134.81076042513024 90.81662946594798 15.064312906875934 H 0.0 **** 0.06
18285 H 135.40289545531647 89.48472994634488 14.042690585751771 H 0.0 **** 0.06
18286 C 94.74081034487898 54.3280424554618 3.333768315240036 C 0.0 **** -0.24
18287 H 94.543376957215 55.10864997717468 4.068869585198172 H 0.0 **** 0.06
18288 H 93.79616975658251 53.96823213886714 2.9255249961503296 H 0.0 **** 0.06
18289 H 95.2679247583066 53.503250572947394 3.81203768328902 H 0.0 **** 0.06
18290 H 95.35412366672156 54.733841470189105 2.528826793194753 H 0.0 **** 0.06
18291 C 115.56987350391593 14.810475470735028 80.27785499364016 C 0.0 **** -0.24
18292 H 114.5216120925016 14.513857099372935 80.25497664110596 H 0.0 **** 0.06
18293 H 116.19926108145579 13.922105420061591 80.21270216520765 H 0.0 **** 0.06
18294 H 115.77856376824279 15.336791349079085 81.20888336827853 H 0.0 **** 0.06
18295 H 115.77973358328701 15.46734579655616 79.43357421776894 H 0.0 **** 0.06
18296 C 128.15543641680125 7.601464343340666 20.65636132360865 C 0.0 **** -0.24
18297 H 127.48948514172184 7.4830572518043255 21.511796655938227 H 0.0 **** 0.06
18298 H 128.9370988857139 6.842312621513571 20.698175029682083 H 0.0 **** 0.06
18299 H 128.6082058447825 8.593042705167505 20.683103249145773 H 0.0 **** 0.06
18300 H 127.58590771617793 7.487073713710515 19.73403288915908 H 0.0 **** 0.06
18301 C 51.58778372358131 124.43911528162594 25.770670178636564 C 0.0 **** -0.24
18302 H 50.727533745042535 124.92220329907192 26.2341481643138 H 0.0 **** 0.06
18303 H 52.432413762603346 124.46286553093013 26.45925998398466 H 0.0 **** 0.06
18304 H 51.85088011967321 124.96643836168485 24.853737493020468 H 0.0 **** 0.06
18305 H 51.33999955243604 123.40363186569026 25.535931976655746 H 0.0 **** 0.06
18306 C 78.6685695491608 103.90089551457883 52.89471739772722 C 0.0 **** -0.24
18307 H 78.50194237478667 104.8036159352185 52.30688653071144 H 0.0 **** 0.06
18308 H 77.82913825695175 103.21943453792471 52.75906375690096 H 0.0 **** 0.06
18309 H 78.7572605221552 104.16501226070194 53.948475505162264 H 0.0 **** 0.06
18310 H 79.58719457602427 103.41676663748346 52.56275173359563 H 0.0 **** 0.06
18311 C 90.79049443691937 85.63544497171493 85.91296767135593 C 0.0 **** -0.24
18312 H 91.59713344123446 85.761776884497 86.6350844624147 H 0.0 **** 0.06
18313 H 89.94202568627014 85.15095841335348 86.39705391169268 H 0.0 **** 0.06
18314 H 91.1379331685074 85.01650229594924 85.08495242658138 H 0.0 **** 0.06
18315 H 90.48508351553858 86.61056381476486 85.53456408606405 H 0.0 **** 0.06
18316 C 71.31127918818672 2.103394258906576 54.2406684944756 C 0.0 **** -0.24
18317 H 72.11390604261666 2.8345633496808205 54.140874611228895 H 0.0 **** 0.06
18318 H 70.75898155264082 2.0391101200547155 53.30307435304553 H 0.0 **** 0.06
18319 H 70.63708823684507 2.411668055912372 55.03980348128985 H 0.0 **** 0.06
18320 H 71.73681508114342 1.1288221237241203 54.480610713508966 H 0.0 **** 0.06
18321 C 39.65940446956167 42.42026814324018 46.59716069631946 C 0.0 **** -0.24
18322 H 40.05606302765952 42.48446076035415 47.610659692893364 H 0.0 **** 0.06
18323 H 39.377273345535755 41.38967885363641 46.38213596591379 H 0.0 **** 0.06
18324 H 40.42195353463426 42.74412735282138 45.888622027762096 H 0.0 **** 0.06
18325 H 38.78425449120327 43.06385885668371 46.507648654349964 H 0.0 **** 0.06
18326 C 106.91015161950543 55.58124815502947 37.25799385882465 C 0.0 **** -0.24
18327 H 107.45079701593107 54.68902459558751 37.57125014573393 H 0.0 **** 0.06
18328 H 105.8421392370625 55.362165994909844 37.214513278352854 H 0.0 **** 0.06
18329 H 107.25826120270409 55.890494858642086 36.27232499864289 H 0.0 **** 0.06
18330 H 107.08717989655713 56.38341458069317 37.97402729755498 H 0.0 **** 0.06
18331 C 91.28906016458248 127.05945806511778 28.310750040685136 C 0.0 **** -0.24
18332 H 91.72205294984283 127.34751775876603 29.26818657406548 H 0.0 **** 0.06
18333 H 91.46969808439977 127.8474176172621 27.57894636223601 H 0.0 **** 0.06
18334 H 90.21494880419584 126.91027274128695 28.426514787328784 H 0.0 **** 0.06
18335 H 91.74945709900385 126.13244220709186 27.96795244716546 H 0.0 **** 0.06
18336 C 30.923025717783673 27.768308753680685 123.69966216227795 C 0.0 **** -0.24
18337 H 30.568786420603857 27.88784871592975 124.72390366049089 H 0.0 **** 0.06
18338 H 31.763016012813452 28.440486145058856 123.52553939320265 H 0.0 **** 0.06
18339 H 30.115592009623512 28.008136252862926 123.00753248383039 H 0.0 **** 0.06
18340 H 31.241887668734876 26.737806057651767 123.54449409873399 H 0.0 **** 0.06
18341 C 104.65031197136577 111.99209218511527 64.53901785795087 C 0.0 **** -0.24
18342 H 105.14161805498327 111.4727561986877 63.71565560367017 H 0.0 **** 0.06
18343 H 103.67359892968898 112.34797693310202 64.21181370370316 H 0.0 **** 0.06
18344 H 105.26109593783218 112.83932707433166 64.85031172331864 H 0.0 **** 0.06
18345 H 104.5263696249254 111.30696038916335 65.37722999174025 H 0.0 **** 0.06
18346 C 74.79285093181576 127.49610261611699 71.07273930969863 C 0.0 **** -0.24
18347 H 73.73837185531289 127.77385642574438 71.07567830046229 H 0.0 **** 0.06
18348 H 75.39483433428771 128.36152641563444 70.79369168799256 H 0.0 **** 0.06
18349 H 74.95389031593368 126.69368409379683 70.3531785372335 H 0.0 **** 0.06
18350 H 75.08137610635558 127.15716033438332 72.06695668229465 H 0.0 **** 0.06
18351 C 140.85129707624247 117.84110880945047 91.08417908570775 C 0.0 **** -0.24
18352 H 139.9219372539494 117.97751490973297 91.63685944405356 H 0.0 **** 0.06
18353 H 141.07563496584888 116.7771192551769 91.00758506937453 H 0.0 **** 0.06
18354 H 141.66246042799847 118.34743079121273 91.60704900087435 H 0.0 **** 0.06
18355 H 140.74310559293997 118.26311459207301 90.08472941482037 H 0.0 **** 0.06
18356 C 94.5893617165436 130.50707743267864 56.91353606614459 C 0.0 **** -0.24
18357 H 94.1943016794225 129.82417054810168 57.66669456174087 H 0.0 **** 0.06
18358 H 94.7698418153771 129.96103967078653 55.98757192289908 H 0.0 **** 0.06
18359 H 95.52552391692393 130.93821743992368 57.270039335114745 H 0.0 **** 0.06
18360 H 93.86806652021366 131.30340553348933 56.73149302814723 H 0.0 **** 0.06
18361 C 107.18780436284291 69.05701864100084 28.8763380391854 C 0.0 **** -0.24
18362 H 108.04368030517102 68.52414336224045 28.46174882504826 H 0.0 **** 0.06
18363 H 106.80035374647369 68.5100668025457 29.736328525012482 H 0.0 **** 0.06
18364 H 106.40883756301409 69.13912295282927 28.11746877480914 H 0.0 **** 0.06
18365 H 107.49784631294975 70.05383223249066 29.188418971257704 H 0.0 **** 0.06
18366 C 95.11357409258873 66.66449230724238 109.78172104061164 C 0.0 **** -0.24
18367 H 95.28340850277301 66.62695888563691 110.8583363230733 H 0.0 **** 0.06
18368 H 94.04217482017651 66.71083126254128 109.585623580153 H 0.0 **** 0.06
18369 H 95.53016724416528 65.77047419702983 109.31702792711528 H 0.0 **** 0.06
18370 H 95.59793963068057 67.5488912540651 109.36853658038874 H 0.0 **** 0.06
18371 C 112.52695517123715 24.61578619900942 13.269398483255998 C 0.0 **** -0.24
18372 H 112.61888603042303 23.56194739360376 13.006046251473094 H 0.0 **** 0.06
18373 H 112.01030051064578 25.14623432161295 12.469541842181627 H 0.0 **** 0.06
18374 H 113.51921313509916 25.043693987110288 13.408347775362472 H 0.0 **** 0.06
18375 H 111.95782374143465 24.710209880687017 14.194810028939173 H 0.0 **** 0.06
18376 C 104.28174938843898 139.38119537171065 134.07583673207407 C 0.0 **** -0.24
18377 H 103.82559491781365 139.23671696729608 135.05489850758212 H 0.0 **** 0.06
18378 H 104.82533610496239 138.4804543153925 133.7916591386638 H 0.0 **** 0.06
18379 H 104.97096603401314 140.22503852907946 134.11726218831458 H 0.0 **** 0.06
18380 H 103.50370692241427 139.58358656832772 133.33935954464735 H 0.0 **** 0.06
18381 C 91.93823204734731 47.81871041329569 95.47906147697583 C 0.0 **** -0.24
18382 H 92.96510261790996 48.05890227928529 95.20124382235497 H 0.0 **** 0.06
18383 H 91.40720848419906 48.73663226738222 95.7302950801413 H 0.0 **** 0.06
18384 H 91.94271108156134 47.15264309315313 96.3417521231022 H 0.0 **** 0.06
18385 H 91.44110029843458 47.327540162045636 94.64278359881962 H 0.0 **** 0.06
18386 C 100.4216166184026 112.76340307690441 135.06074782401467 C 0.0 **** -0.24
18387 H 99.45343922774589 112.40335507201252 134.71221534750964 H 0.0 **** 0.06
18388 H 101.13656028594306 111.94094555726411 135.06098079624402 H 0.0 **** 0.06
18389 H 100.31937391628685 113.15776779048701 136.0722263660797 H 0.0 **** 0.06
18390 H 100.77404333634303 113.55317052363256 134.39780087600028 H 0.0 **** 0.06
18391 C 117.55155760662626 91.25664123684598 136.27072907219718 C 0.0 **** -0.24
18392 H 117.86847605296089 90.51411411216506 135.53767101854987 H 0.0 **** 0.06
18393 H 116.85858331759118 91.95583419381046 135.80166960506233 H 0.0 **** 0.06
18394 H 118.42165949738916 91.79811918072224 136.63951105742171 H 0.0 **** 0.06
18395 H 117.05530940023942 90.75607115378645 137.10225791323415 H 0.0 **** 0.06
18396 C 99.30030953614614 116.47734966131146 20.549411709696265 C 0.0 **** -0.24
18397 H 98.85315427344763 115.97599350815334 19.690797073428655 H 0.0 **** 0.06
18398 H 99.18283998194185 117.5562445580705 20.4414410572629 H 0.0 **** 0.06
18399 H 100.36013058278222 116.23022822942379 20.603200214689203 H 0.0 **** 0.06
18400 H 98.80362665379262 116.14707100130012 21.461330557906876 H 0.0 **** 0.06
18401 C 110.70675259866641 46.71471294876987 43.64435562822928 C 0.0 **** -0.24
18402 H 111.57173875063796 46.48779569997156 44.26842810933334 H 0.0 **** 0.06
18403 H 110.5550066417884 47.793528052088234 43.6125590225944 H 0.0 **** 0.06
18404 H 109.82197934322687 46.2350088181022 44.061256180700255 H 0.0 **** 0.06
18405 H 110.88064887859946 46.342388082864304 42.634548124193515 H 0.0 **** 0.06
18406 C 14.09020527939822 101.21821726771923 65.31502399226218 C 0.0 **** -0.24
18407 H 15.088949173053493 100.96452105860942 64.9610554583931 H 0.0 **** 0.06
18408 H 13.35395297087291 100.60770303327979 64.79209874862624 H 0.0 **** 0.06
18409 H 13.893309347146214 102.27256650855728 65.12034072071475 H 0.0 **** 0.06
18410 H 14.025683704765243 101.02884666802069 66.38609476495725 H 0.0 **** 0.06
18411 C 45.97315154853595 35.72113900684727 0.5744815097161222 C 0.0 **** -0.24
18412 H 45.51440206844009 34.939859514696764 -0.030997753145243223 H 0.0 **** 0.06
18413 H 45.20498744168782 36.41859223097279 0.9100062403155107 H 0.0 **** 0.06
18414 H 46.71353612188824 36.25430116758146 -0.020512286975190364 H 0.0 **** 0.06
18415 H 46.458426606354834 35.27028414912765 1.4404884030870448 H 0.0 **** 0.06
18416 C 77.15611536904291 132.5149225797973 20.121271534283544 C 0.0 **** -0.24
18417 H 76.36197601771264 132.6342006074629 20.857756635244442 H 0.0 **** 0.06
18418 H 77.7832547753627 133.40605430603867 20.11604857351513 H 0.0 **** 0.06
18419 H 76.71636746060167 132.37298761159494 19.133776135265443 H 0.0 **** 0.06
18420 H 77.7609753199142 131.6449349563582 20.377120855708903 H 0.0 **** 0.06
18421 C 52.27392586900169 13.993467519980683 135.2056609084858 C 0.0 **** -0.24
18422 H 53.24940565532995 13.775125064559724 134.77217087012605 H 0.0 **** 0.06
18423 H 52.20205178414358 13.531239088630052 136.19018104009174 H 0.0 **** 0.06
18424 H 51.49159287148433 13.594923966458609 134.55865235019587 H 0.0 **** 0.06
18425 H 52.151310903412536 15.07225814790219 135.30133348693118 H 0.0 **** 0.06
18426 C 78.45781119783327 3.69957197665218 35.878079420299684 C 0.0 **** -0.24
18427 H 79.2740769950196 4.198403863068137 35.35638721391939 H 0.0 **** 0.06
18428 H 77.60063683741689 4.3708765657686115 35.93930201812349 H 0.0 **** 0.06
18429 H 78.78100593749483 3.4307932096332365 36.884511284154456 H 0.0 **** 0.06
18430 H 78.17597096878397 2.798506685966686 35.33428876375744 H 0.0 **** 0.06
18431 C 78.3947737985514 11.617531582170244 26.236241195042794 C 0.0 **** -0.24
18432 H 79.06861589471004 11.56074220032302 25.37972860653781 H 0.0 **** 0.06
18433 H 78.07034901161285 12.649080744856285 26.37464566178727 H 0.0 **** 0.06
18434 H 78.91590654896049 11.2764050579977 27.130864163605054 H 0.0 **** 0.06
18435 H 77.52661659024255 10.983852654535298 26.05722181217567 H 0.0 **** 0.06
18436 C 73.71300361869163 72.32360094500254 39.41747982535752 C 0.0 **** -0.24
18437 H 74.33167671016037 71.83134942561328 38.6665996895616 H 0.0 **** 0.06
18438 H 72.72480998743174 71.8624361361372 39.43163324559823 H 0.0 **** 0.06
18439 H 73.61800090794037 73.38087604214928 39.17327360098447 H 0.0 **** 0.06
18440 H 74.17796243020854 72.21680499602375 40.397984217838484 H 0.0 **** 0.06
18441 C 115.94164678640603 144.02953314527372 90.26755825153091 C 0.0 **** -0.24
18442 H 116.4738752237539 144.90423498983205 90.64209595844719 H 0.0 **** 0.06
18443 H 115.12159223261578 143.7875024281128 90.945350742375 H 0.0 **** 0.06
18444 H 116.62668101644176 143.1846850265959 90.2083924821906 H 0.0 **** 0.06
18445 H 115.54267074293519 144.2442562260985 89.27648964360165 H 0.0 **** 0.06
18446 C 115.36120748120051 19.24346197219961 4.794471784193888 C 0.0 **** -0.24
18447 H 115.22328052694924 20.277982100724955 4.482040829403616 H 0.0 **** 0.06
18448 H 115.78437422167896 18.668074777531558 3.970883660769289 H 0.0 **** 0.06
18449 H 114.39848375895697 18.81789658727388 5.078700673603976 H 0.0 **** 0.06
18450 H 116.03944144790132 19.209313657692235 5.647711212924833 H 0.0 **** 0.06
18451 C 13.806978039315986 135.67370709161554 101.04156112285035 C 0.0 **** -0.24
18452 H 13.59852774506318 136.58040442859794 101.60918185427586 H 0.0 **** 0.06
18453 H 12.909376381999074 135.36873517018807 100.5026090518793 H 0.0 **** 0.06
18454 H 14.108618951571508 134.8794289690389 101.72447614420679 H 0.0 **** 0.06
18455 H 14.610916699616098 135.8665409901899 100.33128046703376 H 0.0 **** 0.06
18456 C 100.36089718282389 67.8311141107959 75.85211106322285 C 0.0 **** -0.24
18457 H 100.89307021373673 67.31974184426471 76.65344938879872 H 0.0 **** 0.06
18458 H 101.05003037985213 68.03771854970448 75.03266491991076 H 0.0 **** 0.06
18459 H 99.9524289943044 68.76893345773907 76.22844934539498 H 0.0 **** 0.06
18460 H 99.54861264256473 67.1992948682714 75.49346200597984 H 0.0 **** 0.06
18461 C 22.226109913907294 83.21299750633162 133.50349752925013 C 0.0 **** -0.24
18462 H 22.55159051705533 84.10926291130629 134.03042498529285 H 0.0 **** 0.06
18463 H 22.908175439230604 82.39196531080503 133.72787827100944 H 0.0 **** 0.06
18464 H 22.227181716957375 83.40286145658543 132.43004122402914 H 0.0 **** 0.06
18465 H 21.218656166665454 82.94815511079567 133.82488415288873 H 0.0 **** 0.06
18466 C 118.84348735871609 116.70976700439861 121.36772032855475 C 0.0 **** -0.24
18467 H 117.88187416455159 116.32984959092182 121.71444899861979 H 0.0 **** 0.06
18468 H 119.64291219897345 116.28033332882815 121.9722098440721 H 0.0 **** 0.06
18469 H 118.85896400491234 117.79628248908408 121.46253352981648 H 0.0 **** 0.06
18470 H 118.98748128071 116.4345828597239 120.32332993484448 H 0.0 **** 0.06
18471 C 56.708572892569066 60.709126295508 84.50759287262424 C 0.0 **** -0.24
18472 H 57.111987251417574 61.34256430483755 83.71685202360261 H 0.0 **** 0.06
18473 H 57.119549516372075 61.022675797937055 85.46772195904744 H 0.0 **** 0.06
18474 H 56.98153879261858 59.67189146456691 84.31587856318416 H 0.0 **** 0.06
18475 H 55.623192023189205 60.80153599500524 84.52872734089078 H 0.0 **** 0.06
18476 C 117.39916969457252 93.106027932908 21.56294149534051 C 0.0 **** -0.24
18477 H 117.55128426623358 92.03983061132496 21.39432851956753 H 0.0 **** 0.06
18478 H 117.07052956652134 93.26933347977808 22.589021821296576 H 0.0 **** 0.06
18479 H 116.64062973711381 93.47722119334091 20.874240133754952 H 0.0 **** 0.06
18480 H 118.33564335147551 93.6372484498448 21.392228993508688 H 0.0 **** 0.06
18481 C 30.011917427371316 100.26132148685258 75.07354438830842 C 0.0 **** -0.24
18482 H 29.721546252137614 99.24457258116095 75.33769610539255 H 0.0 **** 0.06
18483 H 29.206998834581753 100.73547465154945 74.51237533089208 H 0.0 **** 0.06
18484 H 30.914644714565696 100.23458623501804 74.4628901601529 H 0.0 **** 0.06
18485 H 30.204960700471702 100.83148521675429 75.9832347698555 H 0.0 **** 0.06
18486 C 79.33177809743614 41.84358218482291 11.728773109225415 C 0.0 **** -0.24
18487 H 79.7097503310646 41.25317678415142 10.893802228052323 H 0.0 **** 0.06
18488 H 78.30055381108517 42.135111114056016 11.5297624376675 H 0.0 **** 0.06
18489 H 79.9455968442188 42.73556766136154 11.850515929078881 H 0.0 **** 0.06
18490 H 79.37233544147394 41.247517594572685 12.640973220920785 H 0.0 **** 0.06
18491 C 15.507970261826046 145.53747958752888 90.39734227450856 C 0.0 **** -0.24
18492 H 15.216439490183092 144.90600301730112 89.55774411347964 H 0.0 **** 0.06
18493 H 16.594353012955338 145.6263613945879 90.42572316818651 H 0.0 **** 0.06
18494 H 15.15480679817395 145.09247137907238 91.32714016807915 H 0.0 **** 0.06
18495 H 15.066657737342638 146.5269764499007 90.27725430942978 H 0.0 **** 0.06
18496 C 27.853183250059317 25.732449272197876 60.881813374374886 C 0.0 **** -0.24
18497 H 28.742614432367077 25.320769461797774 60.405022232322665 H 0.0 **** 0.06
18498 H 27.07890209860588 24.96661601228957 60.9295000702415 H 0.0 **** 0.06
18499 H 27.49070748692415 26.58143942851065 60.30239390352244 H 0.0 **** 0.06
18500 H 28.102469007595317 26.06047116048442 61.89171842729688 H 0.0 **** 0.06
18501 C 137.15679297640563 22.073769883045514 22.708777990234175 C 0.0 **** -0.24
18502 H 137.23931522806643 22.93950451049011 22.053174876500456 H 0.0 **** 0.06
18503 H 137.98568232890992 22.075602353749446 23.417545961453705 H 0.0 **** 0.06
18504 H 137.19023153477966 21.161672397454765 22.112403978220108 H 0.0 **** 0.06
18505 H 136.21326312404804 22.117552512901455 23.25282247144242 H 0.0 **** 0.06
18506 C 98.50919531972923 9.127958875062859 65.61112218697 C 0.0 **** -0.24
18507 H 98.65169148214082 9.492901564587072 66.62872751964292 H 0.0 **** 0.06
18508 H 99.41996817397711 9.294588303681905 65.03466281948442 H 0.0 **** 0.06
18509 H 97.68197667900833 9.664870854571262 65.14605791637672 H 0.0 **** 0.06
18510 H 98.28330591827878 8.062281690663582 65.63534980559061 H 0.0 **** 0.06
18511 C 39.345081295191704 35.97435966034669 13.50232125047495 C 0.0 **** -0.24
18512 H 39.134632661483494 35.242654226089684 12.723735141362113 H 0.0 **** 0.06
18513 H 39.273144859428925 36.979576055830364 13.085897085695478 H 0.0 **** 0.06
18514 H 40.35055652312687 35.81353129092389 13.89045353642706 H 0.0 **** 0.06
18515 H 38.621764241185105 35.86381609739772 14.309810214995025 H 0.0 **** 0.06
18516 C 81.91586610314732 32.06685684501011 35.57556941008443 C 0.0 **** -0.24
18517 H 81.88552671998335 33.125944351369604 35.828812399512486 H 0.0 **** 0.06
18518 H 80.93145276135468 31.746249676359916 35.23338912254218 H 0.0 **** 0.06
18519 H 82.19921387198124 31.49166649693739 36.4573125833397 H 0.0 **** 0.06
18520 H 82.64754977821042 31.902545789730603 34.784733296125694 H 0.0 **** 0.06
18521 C 24.949414166717112 24.478382519082942 88.28496588753174 C 0.0 **** -0.24
18522 H 26.00119055974141 24.55601290202989 88.00847743296725 H 0.0 **** 0.06
18523 H 24.474821718146757 25.454232055982658 88.18655579499506 H 0.0 **** 0.06
18524 H 24.870407702865435 24.136745810332656 89.31682354061317 H 0.0 **** 0.06
18525 H 24.453973039218077 23.764925064539824 87.62630174265024 H 0.0 **** 0.06
18526 C 4.1440576583727875 30.29621837761968 91.93783139497118 C 0.0 **** -0.24
18527 H 5.096928898977012 30.061230101874912 91.46521660720697 H 0.0 **** 0.06
18528 H 3.3821253990213904 29.60365048081428 91.5822167530022 H 0.0 **** 0.06
18529 H 3.8553403349511086 31.316642048502644 91.68580215626042 H 0.0 **** 0.06
18530 H 4.24350379691748 30.20386507360331 93.01980887740876 H 0.0 **** 0.06
18531 C 83.13444505186843 136.81986739972928 16.65067593080086 C 0.0 **** -0.24
18532 H 84.20902306732506 136.81371448700574 16.83402842914041 H 0.0 **** 0.06
18533 H 82.94943677806037 136.91561162096676 15.580953134160154 H 0.0 **** 0.06
18534 H 82.68075043804927 137.65998324255386 17.175572513800603 H 0.0 **** 0.06
18535 H 82.69960198940416 135.8879642113104 17.012485092544793 H 0.0 **** 0.06
18536 C 63.22712670873827 111.8661589622785 80.97271426137975 C 0.0 **** -0.24
18537 H 63.5001456498691 112.86927959478889 81.30270762496613 H 0.0 **** 0.06
18538 H 63.06899179795937 111.86970393906039 79.89387288509673 H 0.0 **** 0.06
18539 H 62.309180374141505 111.55753780789816 81.47436600165318 H 0.0 **** 0.06
18540 H 64.02885756358684 111.1715921169946 81.22168090562067 H 0.0 **** 0.06
18541 C 79.80433407048315 28.740650443153925 12.955755245267994 C 0.0 **** -0.24
18542 H 80.26308468027227 27.770427252120328 12.76648635605477 H 0.0 **** 0.06
18543 H 80.5210360603385 29.389792543329747 13.459916664874356 H 0.0 **** 0.06
18544 H 78.92540094865421 28.609687929105746 13.588765026395606 H 0.0 **** 0.06
18545 H 79.50667905562486 29.19196399006131 12.009635569254897 H 0.0 **** 0.06
18546 C 44.47162186499911 40.945056861883245 94.56975961114674 C 0.0 **** -0.24
18547 H 43.88646051010976 41.26990850333023 93.70887603122674 H 0.0 **** 0.06
18548 H 43.99936948752773 40.070567968988456 95.01893755613014 H 0.0 **** 0.06
18549 H 44.51741341009094 41.74991092753443 95.302715899449 H 0.0 **** 0.06
18550 H 45.4807507188965 40.68883959622417 94.24684077841289 H 0.0 **** 0.06
18551 C 116.42050955031647 101.46669469859398 122.89990212736143 C 0.0 **** -0.24
18552 H 117.0554418675049 102.26484310053752 122.51749670933857 H 0.0 **** 0.06
18553 H 116.91605853406662 100.50645635302246 122.75435676766541 H 0.0 **** 0.06
18554 H 115.47123205636183 101.46895669989847 122.36377150929833 H 0.0 **** 0.06
18555 H 116.23728079677988 101.62488349597685 123.96249584425931 H 0.0 **** 0.06
18556 C 113.0368351884869 9.397756283231416 62.59111059473932 C 0.0 **** -0.24
18557 H 113.01621475414261 8.420701066187434 63.074531555800036 H 0.0 **** 0.06
18558 H 112.5136664046067 9.34066207267395 61.637005498181566 H 0.0 **** 0.06
18559 H 114.07077741387981 9.698104100330141 62.42308817833282 H 0.0 **** 0.06
18560 H 112.54521060715597 10.129549111624726 63.23260997235724 H 0.0 **** 0.06
18561 C 19.677296617390255 130.4141528350021 39.76870316149817 C 0.0 **** -0.24
18562 H 19.77244307660311 129.45854772061077 39.251152197802135 H 0.0 **** 0.06
18563 H 19.26527581459891 130.24827305394993 40.764289254581165 H 0.0 **** 0.06
18564 H 19.01358674409329 131.06833555412575 39.203627010616486 H 0.0 **** 0.06
18565 H 20.660148316274274 130.8789979259382 39.8540643412431 H 0.0 **** 0.06
18566 C 72.2490233315117 3.2355243240299387 77.12301064902519 C 0.0 **** -0.24
18567 H 72.1268185601879 4.144713583628743 76.53450170961716 H 0.0 **** 0.06
18568 H 71.33363146815262 3.039092012000424 77.68077848531883 H 0.0 **** 0.06
18569 H 73.07870555038947 3.3622537433989237 77.81899699813604 H 0.0 **** 0.06
18570 H 72.45826815349243 2.3970034667678703 76.45831124322419 H 0.0 **** 0.06
18571 C 48.910552100833 83.92589326443913 83.31410710411868 C 0.0 **** -0.24
18572 H 48.386629118489566 83.30558209505125 82.5879731010572 H 0.0 **** 0.06
18573 H 48.2198498104907 84.21829741367323 84.10641332829826 H 0.0 **** 0.06
18574 H 49.29576998575246 84.81825004358363 82.81972718940719 H 0.0 **** 0.06
18575 H 49.73819417794721 83.36210132523964 83.74388043289176 H 0.0 **** 0.06
18576 C 59.11235550168803 21.980114143660792 32.434708625895155 C 0.0 **** -0.24
18577 H 58.98741927776621 23.005619005693013 32.781723893949675 H 0.0 **** 0.06
18578 H 58.62606108723777 21.862892331282026 31.465669031137622 H 0.0 **** 0.06
18579 H 58.66216971826803 21.296137862981027 33.15338940053289 H 0.0 **** 0.06
18580 H 60.175032302342544 21.756885301181697 32.33693428068284 H 0.0 **** 0.06
18581 C 112.03976333144968 77.08911833616462 122.17212547570986 C 0.0 **** -0.24
18582 H 112.51155811743197 77.92403990275803 122.69017330365423 H 0.0 **** 0.06
18583 H 111.21175402066089 76.71052323724128 122.77152453607764 H 0.0 **** 0.06
18584 H 112.77221038595482 76.29533452898247 122.02128274427062 H 0.0 **** 0.06
18585 H 111.66574080759617 77.4263473831469 121.20526838585195 H 0.0 **** 0.06
18586 C 79.46338762135684 102.18516887065857 76.8244478658727 C 0.0 **** -0.24
18587 H 79.59692937110785 101.16186979804351 77.17479696139355 H 0.0 **** 0.06
18588 H 79.81688177614245 102.87995447757567 77.58642473412002 H 0.0 **** 0.06
18589 H 78.40613012737447 102.36724060525245 76.62904721088191 H 0.0 **** 0.06
18590 H 80.03234643176387 102.33205922810185 75.90707066012502 H 0.0 **** 0.06
18591 C 111.40494683764598 102.51638316026536 90.53704775056995 C 0.0 **** -0.24
18592 H 112.05825221050702 101.67033570996324 90.75240498057646 H 0.0 **** 0.06
18593 H 111.99500609833382 103.33697378979167 90.12990287556437 H 0.0 **** 0.06
18594 H 110.91617765284701 102.8398152479524 91.45634437693171 H 0.0 **** 0.06
18595 H 110.64961467186902 102.2155322578609 89.80997277573952 H 0.0 **** 0.06
18596 C 138.8870273725084 14.529133844821267 50.60088833202164 C 0.0 **** -0.24
18597 H 137.79949781115317 14.584624349580714 50.64459343859326 H 0.0 **** 0.06
18598 H 139.19691400340884 14.26828444169228 49.58938760431991 H 0.0 **** 0.06
18599 H 139.23981127864087 13.769024465479639 51.29777507565737 H 0.0 **** 0.06
18600 H 139.3101882746964 15.495574078379981 50.87407142942297 H 0.0 **** 0.06
18601 C 132.11368822662118 58.8641081506328 65.29602890855887 C 0.0 **** -0.24
18602 H 131.235046840308 58.38946474362416 65.73260517663306 H 0.0 **** 0.06
18603 H 133.01416181910716 58.405206401237564 65.70445564221814 H 0.0 **** 0.06
18604 H 132.10748115409902 59.92722746734063 65.5331272343928 H 0.0 **** 0.06
18605 H 132.09676607801285 58.731829710981486 64.2139984227079 H 0.0 **** 0.06
18606 C 34.98670199432331 56.66904061918699 60.403747767764685 C 0.0 **** -0.24
18607 H 35.638656488104004 55.827835144816575 60.169639764753484 H 0.0 **** 0.06
18608 H 33.95128178348631 56.394614256683056 60.19476885756026 H 0.0 **** 0.06
18609 H 35.26607259374828 57.526255616967006 59.79183896978847 H 0.0 **** 0.06
18610 H 35.08877426933526 56.92557329589988 61.457577960618295 H 0.0 **** 0.06
18611 C 65.3574452976006 47.290665761337294 55.87019096634016 C 0.0 **** -0.24
18612 H 64.78620747873362 46.362637894546396 55.90707679573562 H 0.0 **** 0.06
18613 H 66.2705093173883 47.17713070628335 56.45528738481839 H 0.0 **** 0.06
18614 H 64.7590210019631 48.10231981600779 56.28234615067228 H 0.0 **** 0.06
18615 H 65.61419780595821 47.51777349637453 54.83499042157432 H 0.0 **** 0.06
18616 C 76.90377258404476 81.43591051379781 67.5626121555145 C 0.0 **** -0.24
18617 H 76.773507497164 82.29875071919763 66.90931690047236 H 0.0 **** 0.06
18618 H 77.89274635314536 81.4743883806811 68.020130753906 H 0.0 **** 0.06
18619 H 76.80711851819717 80.52057795552673 66.97963261094931 H 0.0 **** 0.06
18620 H 76.14133601332105 81.45283386638555 68.34199525314757 H 0.0 **** 0.06
18621 C 10.02411740026156 100.8723386173051 133.90196876248373 C 0.0 **** -0.24
18622 H 9.192920758818559 101.47358786972546 134.27183011957965 H 0.0 **** 0.06
18623 H 10.196934639074641 100.03591556442376 134.57928078819958 H 0.0 **** 0.06
18624 H 10.921587897105383 101.48774664640229 133.84664676133582 H 0.0 **** 0.06
18625 H 9.782434364647258 100.49123003237622 132.90888541735143 H 0.0 **** 0.06
18626 C 109.38735959751254 63.20435676532149 43.73385878923513 C 0.0 **** -0.24
18627 H 110.13017677093994 63.61171154609799 44.41982863783028 H 0.0 **** 0.06
18628 H 108.77076022366465 64.01375547344743 43.34478324559507 H 0.0 **** 0.06
18629 H 108.75754550673373 62.489141512487166 44.26402319838047 H 0.0 **** 0.06
18630 H 109.89241452973319 62.702099721534594 42.90932120087032 H 0.0 **** 0.06
18631 C 114.34498870987757 119.59329042907652 124.61278277791973 C 0.0 **** -0.24
18632 H 114.3291567649007 119.46288812309032 125.69534341463827 H 0.0 **** 0.06
18633 H 115.28709896197473 120.05622727410858 124.31694548548461 H 0.0 **** 0.06
18634 H 113.51520081807548 120.2310853432381 124.31155112325229 H 0.0 **** 0.06
18635 H 114.25035064666385 118.62099306799755 124.1296778639861 H 0.0 **** 0.06
18636 C 61.95112574736157 65.76192235213472 90.75004168233934 C 0.0 **** -0.24
18637 H 62.38727004281208 65.44375502485997 89.80327001510435 H 0.0 **** 0.06
18638 H 61.84603917222785 64.90027152738577 91.40956240200775 H 0.0 **** 0.06
18639 H 60.970605965378184 66.20290616291172 90.56756105464767 H 0.0 **** 0.06
18640 H 62.59998950345556 66.50228236172683 91.2182518815919 H 0.0 **** 0.06
18641 C 106.75109500614302 94.00318640442119 72.29144369827827 C 0.0 **** -0.24
18642 H 106.68996205052945 94.64222890841872 73.17203969681454 H 0.0 **** 0.06
18643 H 106.53323705719406 92.97282839843879 72.57512883081537 H 0.0 **** 0.06
18644 H 107.75448623533983 94.05936785134257 71.86962552306213 H 0.0 **** 0.06
18645 H 106.02522293475486 94.33651730910533 71.54974420315662 H 0.0 **** 0.06
18646 C 10.868275212411447 96.61315348063113 52.28979669559237 C 0.0 **** -0.24
18647 H 10.291176531380756 97.53310860655915 52.1912542308235 H 0.0 **** 0.06
18648 H 10.188083913756998 95.76338653519252 52.35180358412278 H 0.0 **** 0.06
18649 H 11.47500074351916 96.6601629117468 53.19398922510777 H 0.0 **** 0.06
18650 H 11.517055293648355 96.49727136121803 51.422432542411485 H 0.0 **** 0.06
18651 C 106.86471139052472 141.37189853493953 55.75974143128235 C 0.0 **** -0.24
18652 H 106.74520105939891 140.5624281223499 55.03970613853937 H 0.0 **** 0.06
18653 H 105.91130260868565 141.8846343240278 55.891539201202136 H 0.0 **** 0.06
18654 H 107.60972638582572 142.07739740218244 55.39313420127627 H 0.0 **** 0.06
18655 H 107.19224687985141 140.96216778870013 56.715550587261134 H 0.0 **** 0.06
18656 C 109.5428742911998 11.216889612666051 39.58865063728098 C 0.0 **** -0.24
18657 H 110.11090407619567 11.764113901871411 40.34067099417928 H 0.0 **** 0.06
18658 H 109.98294651720407 10.229689218628664 39.447761626826036 H 0.0 **** 0.06
18659 H 109.56675621316514 11.763916496901174 38.64624884896705 H 0.0 **** 0.06
18660 H 108.50944966777409 11.11079206213168 39.921340932711814 H 0.0 **** 0.06
18661 C 124.89523521140002 42.99993117352733 122.5572058577926 C 0.0 **** -0.24
18662 H 125.57188988224284 43.834775291498175 122.74300065282053 H 0.0 **** 0.06
18663 H 124.56121414501212 43.02806144145171 121.5190403598803 H 0.0 **** 0.06
18664 H 124.03342231352946 43.076639300418066 123.21884489319324 H 0.0 **** 0.06
18665 H 125.41688651185183 42.06174681857948 122.7466548947271 H 0.0 **** 0.06
18666 C 79.89445176979723 46.1265604942231 144.20582891557555 C 0.0 **** -0.24
18667 H 80.22390628199497 47.139662755429455 144.43882135576337 H 0.0 **** 0.06
18668 H 80.76419037187077 45.49631171396693 144.01916570836823 H 0.0 **** 0.06
18669 H 79.26271119546834 46.14686838769423 143.31769528777792 H 0.0 **** 0.06
18670 H 79.32805138826114 45.72687028448364 145.0467142946216 H 0.0 **** 0.06
18671 C 73.556108853891 112.63284950334523 120.06359678077114 C 0.0 **** -0.24
18672 H 74.02058449485816 113.16711519629504 119.23460374219268 H 0.0 **** 0.06
18673 H 73.22133766125988 111.6532632787108 119.72133079606031 H 0.0 **** 0.06
18674 H 72.7013766095708 113.2028238676327 120.42850900677603 H 0.0 **** 0.06
18675 H 74.28061263228197 112.50945349569051 120.86790800834312 H 0.0 **** 0.06
18676 C 129.2581907352028 97.135352073328 44.16280711158085 C 0.0 **** -0.24
18677 H 130.0044991779677 96.42502043375475 43.807074675486916 H 0.0 **** 0.06
18678 H 128.47894960040838 97.2516374500834 43.409825143165975 H 0.0 **** 0.06
18679 H 129.73392431649714 98.09908989105742 44.346014370910794 H 0.0 **** 0.06
18680 H 128.81827950939265 96.76553538817998 45.08911086248395 H 0.0 **** 0.06
18681 C 61.97355928220263 23.35214994172256 104.85853262759316 C 0.0 **** -0.24
18682 H 62.33581980557709 23.58097366458847 105.86116164496973 H 0.0 **** 0.06
18683 H 62.77021484297494 23.528085014302007 104.13560893188983 H 0.0 **** 0.06
18684 H 61.12262106698162 23.991896167500414 104.62613257297068 H 0.0 **** 0.06
18685 H 61.66594109861842 22.307286464284658 104.8140098926721 H 0.0 **** 0.06
18686 C 58.04548214182586 137.40595302941279 52.504377296329096 C 0.0 **** -0.24
18687 H 59.0874252634498 137.61413018020326 52.74686170327931 H 0.0 **** 0.06
18688 H 58.00015550899565 136.73666259747733 51.64440649804277 H 0.0 **** 0.06
18689 H 57.53397802217677 138.33836491447278 52.26639097416245 H 0.0 **** 0.06
18690 H 57.561155382387966 136.9326311788935 53.35871442511052 H 0.0 **** 0.06
18691 C 70.06242919489067 66.39057104674492 91.48306556818923 C 0.0 **** -0.24
18692 H 70.26824833726128 66.28064094588447 90.41842678380011 H 0.0 **** 0.06
18693 H 70.01128038824766 65.40513868882523 91.94638379045774 H 0.0 **** 0.06
18694 H 69.11124810147426 66.90513647918179 91.6174188956777 H 0.0 **** 0.06
18695 H 70.85882714747274 66.97160220524098 91.94864264293591 H 0.0 **** 0.06
18696 C 60.906947926354235 69.9117583915713 71.84571108804477 C 0.0 **** -0.24
18697 H 61.04184784782572 68.83280845186724 71.92182242862022 H 0.0 **** 0.06
18698 H 60.49392429696687 70.1570022196388 70.86661155372191 H 0.0 **** 0.06
18699 H 61.86901055279279 70.40824366878964 71.9690996333739 H 0.0 **** 0.06
18700 H 60.22168294789475 70.24741245320148 72.62442360260394 H 0.0 **** 0.06
18701 C 91.49879462810982 23.107132926284798 145.3026674830858 C 0.0 **** -0.24
18702 H 92.54648383115266 22.826289926092002 145.19517125730954 H 0.0 **** 0.06
18703 H 91.13023558777299 22.768540865631337 146.2717168158526 H 0.0 **** 0.06
18704 H 90.91468118103533 22.64194932355675 144.5089977995071 H 0.0 **** 0.06
18705 H 91.40453531221405 24.190982836335714 145.2369830653022 H 0.0 **** 0.06
18706 C 81.44264532832767 82.15767120477632 72.38847696584742 C 0.0 **** -0.24
18707 H 81.27178182591229 81.10337956233727 72.17158372473548 H 0.0 **** 0.06
18708 H 82.32759949178904 82.26066368198974 73.0164025760858 H 0.0 **** 0.06
18709 H 80.57657518091145 82.5651203318093 72.90999072750395 H 0.0 **** 0.06
18710 H 81.59375705769241 82.70006723876755 71.45486638953273 H 0.0 **** 0.06
18711 C 129.39764372576042 135.29096227290677 138.51312169794892 C 0.0 **** -0.24
18712 H 128.48040658674552 135.59191755409103 139.02106551836772 H 0.0 **** 0.06
18713 H 129.78747741860036 136.13241685350863 137.93926384907633 H 0.0 **** 0.06
18714 H 129.1847566122898 134.45973310280382 137.8419540734939 H 0.0 **** 0.06
18715 H 130.13635041473182 134.98183028775475 139.25250436789815 H 0.0 **** 0.06
18716 C 66.38969073023469 75.56038786083894 91.05624375209673 C 0.0 **** -0.24
18717 H 65.61159268181973 75.40286513171358 91.80415549800124 H 0.0 **** 0.06
18718 H 66.66073567814465 74.60378140721454 90.60761060450973 H 0.0 **** 0.06
18719 H 67.26559032930373 76.00171700006482 91.53098404612648 H 0.0 **** 0.06
18720 H 66.0171784812506 76.23275867066832 90.28284020017838 H 0.0 **** 0.06
18721 C 45.57551414475631 26.765038426322377 110.29284190445406 C 0.0 **** -0.24
18722 H 46.47368704341483 26.467256497640022 110.83319015445136 H 0.0 **** 0.06
18723 H 45.82296118586919 26.936786273739585 109.24458258563124 H 0.0 **** 0.06
18724 H 45.17762356452312 27.681830111350905 110.72756017622368 H 0.0 **** 0.06
18725 H 44.82968962243524 25.974009387881324 110.36489534344446 H 0.0 **** 0.06
18726 C 10.511258370033914 27.818181629462998 65.05558334932286 C 0.0 **** -0.24
18727 H 11.475583223917113 27.798372573190107 64.54775751476487 H 0.0 **** 0.06
18728 H 10.484682054355204 27.03638290191259 65.81509725632827 H 0.0 **** 0.06
18729 H 9.715574698647316 27.64807588242101 64.33134764237377 H 0.0 **** 0.06
18730 H 10.370563655804546 28.789850771424796 65.52989759920993 H 0.0 **** 0.06
18731 C 56.24384424629014 91.44692142539945 114.69585828607502 C 0.0 **** -0.24
18732 H 56.95412567455345 90.63002312808285 114.82508436415013 H 0.0 **** 0.06
18733 H 55.23893830845792 91.03988570823799 114.58602725888282 H 0.0 **** 0.06
18734 H 56.50483295191306 92.01751038368312 113.80456314288425 H 0.0 **** 0.06
18735 H 56.278187241030935 92.09976257011002 115.56825436031609 H 0.0 **** 0.06
18736 C 45.401685031220666 108.64662564740046 11.387327283371498 C 0.0 **** -0.24
18737 H 45.801820951356206 107.69939440322533 11.748443742403104 H 0.0 **** 0.06
18738 H 44.59184586628318 108.45437480826679 10.684256166902706 H 0.0 **** 0.06
18739 H 46.1909727859058 109.2081768374983 10.888615993452582 H 0.0 **** 0.06
18740 H 45.022140492992165 109.22415249235893 12.230408889927247 H 0.0 **** 0.06
18741 C 82.92192026729 44.39655346866681 76.05648120426072 C 0.0 **** -0.24
18742 H 81.94543272227077 44.16299972060608 76.48129014559517 H 0.0 **** 0.06
18743 H 83.69059893628206 43.82496073674048 76.5769768973053 H 0.0 **** 0.06
18744 H 83.12112977209523 45.461989106102294 76.1693809361181 H 0.0 **** 0.06
18745 H 82.92926227624193 44.135619656090654 74.99821727921244 H 0.0 **** 0.06
18746 C 136.92646449070216 65.20286056409084 133.12948866114886 C 0.0 **** -0.24
18747 H 137.01393155650027 64.35604582514756 132.4491716881285 H 0.0 **** 0.06
18748 H 136.92374624689793 66.12999122920544 132.55657573188668 H 0.0 **** 0.06
18749 H 137.77116196681024 65.20308174216889 133.81912629465398 H 0.0 **** 0.06
18750 H 135.99714614974124 65.12205788774205 133.69403651462264 H 0.0 **** 0.06
18751 C 0.2381345823041947 67.49925728000943 40.89056549896239 C 0.0 **** -0.24
18752 H -0.5781984490257805 67.39108201549038 41.6039043667964 H 0.0 **** 0.06
18753 H -0.16885246771196094 67.5812307972374 39.882688629924544 H 0.0 **** 0.06
18754 H 0.89009299065631 66.62826816605312 40.950599301701104 H 0.0 **** 0.06
18755 H 0.8088706155224017 68.3979458423277 41.12567434395137 H 0.0 **** 0.06
18756 C 109.74126525526168 101.00329537406878 75.71266222535112 C 0.0 **** -0.24
18757 H 110.42673937839749 100.86650440213378 74.87585198099323 H 0.0 **** 0.06
18758 H 108.76324337145655 100.5978681326288 75.45072157434623 H 0.0 **** 0.06
18759 H 109.64647669730454 102.06716601090369 75.93341628871711 H 0.0 **** 0.06
18760 H 110.12759905331393 100.48277728070525 76.5880689529354 H 0.0 **** 0.06
18761 C 76.22447892245879 75.7594391844627 5.6989616364565165 C 0.0 **** -0.24
18762 H 75.37249498397236 76.42206255901687 5.847003773489433 H 0.0 **** 0.06
18763 H 77.08623360715936 76.34303553568577 5.372975258631243 H 0.0 **** 0.06
18764 H 75.98021386139229 75.0165379132142 4.939458383594086 H 0.0 **** 0.06
18765 H 76.46029705365139 75.25603509489571 6.636899297737216 H 0.0 **** 0.06
18766 C 6.359013807623285 13.090194910632704 94.85305522012675 C 0.0 **** -0.24
18767 H 5.380243323135598 13.262220506550307 95.30216710058347 H 0.0 **** 0.06
18768 H 6.3962068591450745 13.565340064114878 93.87212162801241 H 0.0 **** 0.06
18769 H 6.525939334942496 12.018821592753795 94.74576151196625 H 0.0 **** 0.06
18770 H 7.131296477945035 13.516835170445802 95.49337270184029 H 0.0 **** 0.06
18771 C 10.249015560423175 43.892429119717605 68.86396168778322 C 0.0 **** -0.24
18772 H 10.614568455278118 43.3106667547123 68.01862479303597 H 0.0 **** 0.06
18773 H 9.258980728994516 43.53457444586262 69.1501819715956 H 0.0 **** 0.06
18774 H 10.187966934688802 44.94378680881208 68.58225796768906 H 0.0 **** 0.06
18775 H 10.932814534629415 43.780705578229615 69.70481997908311 H 0.0 **** 0.06
18776 C 144.53762776321753 42.416130995521996 43.148401887968646 C 0.0 **** -0.24
18777 H 144.256057677162 41.65922752091393 43.87943078413761 H 0.0 **** 0.06
18778 H 143.66478898466636 42.69022420900279 42.55490351223142 H 0.0 **** 0.06
18779 H 145.3120709977885 42.01806712874378 42.49301443354179 H 0.0 **** 0.06
18780 H 144.9169145893702 43.297923771917624 43.66495673084327 H 0.0 **** 0.06
18781 C 86.88366140349692 66.48486306440327 21.866520346088123 C 0.0 **** -0.24
18782 H 86.36655616723841 66.49899117085283 22.825670201028544 H 0.0 **** 0.06
18783 H 87.67276143330066 67.23792364705747 21.86894351274843 H 0.0 **** 0.06
18784 H 86.17387498750779 66.70485467124564 21.06845776930404 H 0.0 **** 0.06
18785 H 87.3210525089426 65.50045424673982 21.702611349245444 H 0.0 **** 0.06
18786 C 108.88198021805897 93.4813781898618 88.78404872638416 C 0.0 **** -0.24
18787 H 108.90985521057911 94.38830131546419 88.17885091678974 H 0.0 **** 0.06
18788 H 109.44174849158628 92.69218669000028 88.28166722541627 H 0.0 **** 0.06
18789 H 107.84702034198938 93.16545611179367 88.91719983257227 H 0.0 **** 0.06
18790 H 109.32814648651123 93.68170525462477 89.75814247049968 H 0.0 **** 0.06
18791 C 4.114123100146639 100.58976983213432 86.27556508203521 C 0.0 **** -0.24
18792 H 4.759793803057079 101.1691332322669 85.61544365410631 H 0.0 **** 0.06
18793 H 3.96300781418001 99.59591024594403 85.85459812756108 H 0.0 **** 0.06
18794 H 3.152192057608083 101.09271514037046 86.37650366783868 H 0.0 **** 0.06
18795 H 4.583618897185783 100.50201344805559 87.2555561166076 H 0.0 **** 0.06
18796 C 42.464947563817276 93.29574365227774 59.433924412148684 C 0.0 **** -0.24
18797 H 42.37022344380476 94.24904090817444 59.953377544383926 H 0.0 **** 0.06
18798 H 43.244078455203365 92.69928194379412 59.90959491077453 H 0.0 **** 0.06
18799 H 42.72824414285277 93.47424552163469 58.39132386785431 H 0.0 **** 0.06
18800 H 41.51644647839899 92.76041449574372 59.48256907469357 H 0.0 **** 0.06
18801 C 115.49038286040978 105.14754302972648 125.88900820922248 C 0.0 **** -0.24
18802 H 115.07660093405993 104.15810567390906 126.0824122193172 H 0.0 **** 0.06
18803 H 115.34587597527236 105.40372730009807 124.83887806115243 H 0.0 **** 0.06
18804 H 116.5557756189625 105.14719173652134 126.12006027714395 H 0.0 **** 0.06
18805 H 114.9833211876411 105.88193432560377 126.51529792352778 H 0.0 **** 0.06
18806 C 104.28260498017205 76.38870482650512 75.77574952532208 C 0.0 **** -0.24
18807 H 104.2435873035021 75.62865987010508 76.55646151304282 H 0.0 **** 0.06
18808 H 104.14239706577789 77.3740353190589 76.22200452689788 H 0.0 **** 0.06
18809 H 103.49188921410997 76.20338626748034 75.04823970556626 H 0.0 **** 0.06
18810 H 105.25068980562541 76.34966412885092 75.27759449193914 H 0.0 **** 0.06
18811 C 132.032525232827 117.18384315972713 60.46983462003212 C 0.0 **** -0.24
18812 H 131.2170633274002 117.66884638870698 61.00524622931226 H 0.0 **** 0.06
18813 H 131.87837508766174 117.29291238487656 59.3958986012814 H 0.0 **** 0.06
18814 H 132.0584472303207 116.12525492697637 60.72890973074823 H 0.0 **** 0.06
18815 H 132.97829615849074 117.64901133631025 60.751085222681795 H 0.0 **** 0.06
18816 C 68.24747294866006 8.337499851499132 59.174897074311886 C 0.0 **** -0.24
18817 H 67.98187606001596 7.28129159785945 59.146396848102995 H 0.0 **** 0.06
18818 H 69.07816379710363 8.484818527258795 59.86570519255402 H 0.0 **** 0.06
18819 H 67.38900886992053 8.918775306477954 59.509867403254674 H 0.0 **** 0.06
18820 H 68.54084306760012 8.665113974400498 58.17761885333593 H 0.0 **** 0.06
18821 C 13.280026769480045 87.2646553264109 21.477114807835903 C 0.0 **** -0.24
18822 H 13.650699034322642 86.78404676077382 22.383608858012167 H 0.0 **** 0.06
18823 H 13.56857282078105 86.67151754656778 20.608979637348284 H 0.0 **** 0.06
18824 H 13.708436446874778 88.2635117855608 21.395134243265545 H 0.0 **** 0.06
18825 H 12.192980262138533 87.33689012740906 21.523836998849845 H 0.0 **** 0.06
18826 C 29.748338170994998 3.4695661507222155 99.6414664722402 C 0.0 **** -0.24
18827 H 30.462525787177412 4.24321323375861 99.92250581694378 H 0.0 **** 0.06
18828 H 29.794188843146685 2.653548925672112 100.36331586250783 H 0.0 **** 0.06
18829 H 29.99447400665605 3.0912439005789167 98.64884904287482 H 0.0 **** 0.06
18830 H 28.742903421363962 3.8895853127338285 99.6311837472306 H 0.0 **** 0.06
18831 C 81.5683383291111 18.77864283656038 116.45493377623863 C 0.0 **** -0.24
18832 H 82.42490224625118 19.093987246510125 117.05117288858376 H 0.0 **** 0.06
18833 H 81.48360605170762 17.69229707267249 116.48665488818365 H 0.0 **** 0.06
18834 H 81.70376988226667 19.103336858296643 115.42347754149502 H 0.0 **** 0.06
18835 H 80.65973821066518 19.226098517570875 116.86064208742529 H 0.0 **** 0.06
18836 C 16.10132154416587 1.7558252104908547 106.38080744226146 C 0.0 **** -0.24
18837 H 17.105186590738384 2.0846626359099787 106.64911100542803 H 0.0 **** 0.06
18838 H 15.370360991402237 2.2995435814267466 106.9795903044605 H 0.0 **** 0.06
18839 H 16.006506400570743 0.6865002118136942 106.57346022808254 H 0.0 **** 0.06
18840 H 15.924464100359216 1.95229038518616 105.3237867540089 H 0.0 **** 0.06
18841 C 113.26507203390004 56.342870719127205 5.044965212308519 C 0.0 **** -0.24
18842 H 113.88942601333893 56.586336247036456 4.1846062207855645 H 0.0 **** 0.06
18843 H 112.2184567731991 56.51862683616834 4.795451286028381 H 0.0 **** 0.06
18844 H 113.54937094845188 56.97284611639431 5.888111726140778 H 0.0 **** 0.06
18845 H 113.40602870695868 55.295513876625265 5.310407713616289 H 0.0 **** 0.06
18846 C 126.62126016956833 103.63658664295852 89.80968735888675 C 0.0 **** -0.24
18847 H 127.00068952427415 103.84007364652786 88.80853638026034 H 0.0 **** 0.06
18848 H 125.69305054285292 103.06894969043177 89.73781864215383 H 0.0 **** 0.06
18849 H 126.43173894502013 104.57907582476398 90.32352755766671 H 0.0 **** 0.06
18850 H 127.35815457040422 103.06041228604059 90.36733918175264 H 0.0 **** 0.06
18851 C 8.629989979469144 80.16815822856927 23.499995610474834 C 0.0 **** -0.24
18852 H 9.615106532482855 79.91913000614619 23.107144288685312 H 0.0 **** 0.06
18853 H 7.942879314329048 80.34594114707983 22.672153774403107 H 0.0 **** 0.06
18854 H 8.700630849094011 81.06638934565291 24.11305156580797 H 0.0 **** 0.06
18855 H 8.262021289970676 79.34176994708508 24.10806085897258 H 0.0 **** 0.06
18856 C 23.141713555004344 18.508608420380824 110.46600604483284 C 0.0 **** -0.24
18857 H 23.756202301221066 19.13197969556265 109.81506149286442 H 0.0 **** 0.06
18858 H 23.620531036378395 18.42197733540732 111.44237782706936 H 0.0 **** 0.06
18859 H 23.033667520678563 17.51814731739742 110.02412851949207 H 0.0 **** 0.06
18860 H 22.15892783326163 18.96460599138109 110.58162306792484 H 0.0 **** 0.06
18861 C 119.10543462119853 136.5355082195763 47.7472003787727 C 0.0 **** -0.24
18862 H 118.28736687130754 136.0594151506776 47.204794137851565 H 0.0 **** 0.06
18863 H 119.60205675333543 135.79569969091162 48.374926186987 H 0.0 **** 0.06
18864 H 118.70850794696582 137.33599815904012 48.372157180179 H 0.0 **** 0.06
18865 H 119.81985488739639 136.94993499211586 47.03628195463146 H 0.0 **** 0.06
18866 C 10.095876718073896 79.26221596998873 39.064828588205586 C 0.0 **** -0.24
18867 H 10.983827052528397 79.45147579368043 39.66748420415112 H 0.0 **** 0.06
18868 H 10.152338074971567 78.26002726602579 38.638384135761015 H 0.0 **** 0.06
18869 H 10.038390914101626 79.99641170768491 38.261295829939996 H 0.0 **** 0.06
18870 H 9.207790349448146 79.34041066954245 39.69275305091122 H 0.0 **** 0.06
18871 C 123.55320703484409 50.23950132842509 117.41104085365637 C 0.0 **** -0.24
18872 H 123.37070300939041 49.20644674376992 117.11476663887456 H 0.0 **** 0.06
18873 H 123.63955818799054 50.86263393749758 116.52023044827635 H 0.0 **** 0.06
18874 H 124.47857386602928 50.29433340693822 117.98443388359956 H 0.0 **** 0.06
18875 H 122.72428079514712 50.59325047036724 118.0236742735639 H 0.0 **** 0.06
18876 C 0.16200145709137814 36.122841271472595 144.07511247930307 C 0.0 **** -0.24
18877 H 0.11157338449532972 36.73022599178657 143.170879793073 H 0.0 **** 0.06
18878 H 1.1443570368648466 35.655487495795285 144.142698392281 H 0.0 **** 0.06
18879 H -0.606784415596735 35.35065949015964 144.036830580224 H 0.0 **** 0.06
18880 H -0.0016599181021206277 36.756062936900264 144.9466376588326 H 0.0 **** 0.06
18881 C 58.92665946553984 107.29124578331435 140.0832156130783 C 0.0 **** -0.24
18882 H 58.82820830510673 107.87932031353408 139.17044859075315 H 0.0 **** 0.06
18883 H 59.80779010823562 106.65388103989623 140.01116106218103 H 0.0 **** 0.06
18884 H 58.03950032306659 106.67260273942652 140.2148449892789 H 0.0 **** 0.06
18885 H 59.031565403178604 107.96136895118754 140.93655879589048 H 0.0 **** 0.06
18886 C 113.60878841899908 141.34166160789002 11.065051934103877 C 0.0 **** -0.24
18887 H 114.6495449091489 141.66302453577762 11.025851320799774 H 0.0 **** 0.06
18888 H 113.17377077820139 141.3996926365546 10.066568577837216 H 0.0 **** 0.06
18889 H 113.05323015098539 141.99160139188515 11.741214038495201 H 0.0 **** 0.06
18890 H 113.55853354323669 140.3144192204812 11.424424121278179 H 0.0 **** 0.06
18891 C 8.993962543615936 67.39684132827138 42.052900833092025 C 0.0 **** -0.24
18892 H 8.614031844035736 67.1194654982671 43.03615268659021 H 0.0 **** 0.06
18893 H 8.282432284062907 68.06351383434819 41.56486149955427 H 0.0 **** 0.06
18894 H 9.125755361962803 66.50036440125723 41.44820205885131 H 0.0 **** 0.06
18895 H 9.95117438420786 67.90574743837654 42.163381288721524 H 0.0 **** 0.06
18896 C 41.11160787380138 59.010369979930715 105.83589776789512 C 0.0 **** -0.24
18897 H 41.61525463862964 59.84316132244044 106.32770611991145 H 0.0 **** 0.06
18898 H 40.709597412477066 58.333440496745425 106.58991101208608 H 0.0 **** 0.06
18899 H 41.82357365970417 58.474392567003605 105.20925690258605 H 0.0 **** 0.06
18900 H 40.2978256633076 59.390858523870236 105.21839887101015 H 0.0 **** 0.06
18901 C 52.69237140554577 124.61733960886127 15.810352712979842 C 0.0 **** -0.24
18902 H 53.57923446774393 123.99133286811596 15.712218299093337 H 0.0 **** 0.06
18903 H 52.17199687250414 124.66163935667974 14.853454710375765 H 0.0 **** 0.06
18904 H 52.98908392927103 125.62231845156967 16.111512350522162 H 0.0 **** 0.06
18905 H 52.029502913852994 124.19266215051508 16.56518142009743 H 0.0 **** 0.06
18906 C 133.82793523377396 27.838797829762797 22.608475346420136 C 0.0 **** -0.24
18907 H 133.15897525398807 28.63395548585359 22.939961111012757 H 0.0 **** 0.06
18908 H 133.28353543072433 27.15496896564086 21.9570923225546 H 0.0 **** 0.06
18909 H 134.202948457717 27.29492284379073 23.47495266250555 H 0.0 **** 0.06
18910 H 134.66425016489453 28.27417563929137 22.06097062211134 H 0.0 **** 0.06
18911 C 88.45314574131262 101.8482856135539 24.104682782579246 C 0.0 **** -0.24
18912 H 87.8713879791684 101.33118925876437 23.34017035043577 H 0.0 **** 0.06
18913 H 89.14908478758493 101.14820728051954 24.566798637195973 H 0.0 **** 0.06
18914 H 87.78083640129765 102.24777594868655 24.863642925477137 H 0.0 **** 0.06
18915 H 89.01036097077785 102.66495335689758 23.64564260605283 H 0.0 **** 0.06
18916 C 69.7609543748516 81.39271943887849 93.42928795362369 C 0.0 **** -0.24
18917 H 69.4849879585875 81.21338702050747 94.46882359723998 H 0.0 **** 0.06
18918 H 70.67364021259645 81.9876766851769 93.3936321107326 H 0.0 **** 0.06
18919 H 68.95664520531038 81.93044304447858 92.92724614226643 H 0.0 **** 0.06
18920 H 69.92847694539316 80.43902157173403 92.9288187121112 H 0.0 **** 0.06
18921 C 21.770713319296945 67.35235076008041 20.56384971540197 C 0.0 **** -0.24
18922 H 20.792344314744234 67.76751858891609 20.32152210744664 H 0.0 **** 0.06
18923 H 22.391948548984068 68.1267216636164 21.013310912374962 H 0.0 **** 0.06
18924 H 22.244608871152032 66.98736907309348 19.653197627235315 H 0.0 **** 0.06
18925 H 21.65097854368726 66.52794931230854 21.266997456242507 H 0.0 **** 0.06
18926 C 69.26056351600052 16.142592356062835 43.08886370164052 C 0.0 **** -0.24
18927 H 68.19898088816095 16.302374005888055 42.90132697015386 H 0.0 **** 0.06
18928 H 69.63543921996435 15.369420884751662 42.41828113790845 H 0.0 **** 0.06
18929 H 69.40380243000594 15.828313938808833 44.12277549350438 H 0.0 **** 0.06
18930 H 69.80432903558435 17.07118438418729 42.9128300726139 H 0.0 **** 0.06
18931 C 41.534992614257504 115.41039148136714 99.32458777034648 C 0.0 **** -0.24
18932 H 42.51560890588533 115.07667492449933 98.98356886229817 H 0.0 **** 0.06
18933 H 41.65183666455775 116.02950223890666 100.21393709714798 H 0.0 **** 0.06
18934 H 40.91970687515084 114.54278845297837 99.56335617360799 H 0.0 **** 0.06
18935 H 41.0544473440101 115.99077461133153 98.53760014711722 H 0.0 **** 0.06
18936 C 5.939210391319762 98.33402458905891 79.97154394554417 C 0.0 **** -0.24
18937 H 5.188108428474692 98.31498187921639 79.18116988136464 H 0.0 **** 0.06
18938 H 6.776687966925607 97.69504598995596 79.69036324943806 H 0.0 **** 0.06
18939 H 5.49785304682959 97.96927566984799 80.8992684923081 H 0.0 **** 0.06
18940 H 6.29171720448312 99.35486672492809 80.11359713737517 H 0.0 **** 0.06
18941 C 105.13525412306109 79.20337294943062 71.89092978140599 C 0.0 **** -0.24
18942 H 104.59169855999188 78.25898066238705 71.85316097150141 H 0.0 **** 0.06
18943 H 105.64380818913689 79.29117503528684 72.85104146977446 H 0.0 **** 0.06
18944 H 104.43436026247524 80.02999403577456 71.77457570190836 H 0.0 **** 0.06
18945 H 105.86840152296396 79.23188710684974 71.08609523891252 H 0.0 **** 0.06
18946 C 30.61740387192941 66.3923643854747 8.46046637209685 C 0.0 **** -0.24
18947 H 30.062347081601786 66.61345911997688 9.371727005606154 H 0.0 **** 0.06
18948 H 30.806229976159784 65.31992031942116 8.401049394360566 H 0.0 **** 0.06
18949 H 31.566107860792897 66.92871022012355 8.473686580840951 H 0.0 **** 0.06
18950 H 30.034528406453603 66.70803139598542 7.594771588782418 H 0.0 **** 0.06
18951 C 59.36654961725901 6.682110833556749 67.75240595407661 C 0.0 **** -0.24
18952 H 60.145179092535926 5.9865210788289005 68.06409633405482 H 0.0 **** 0.06
18953 H 58.98821769559447 7.217511772301634 68.62268788998571 H 0.0 **** 0.06
18954 H 58.5525891944948 6.1286997895404625 67.28392591156359 H 0.0 **** 0.06
18955 H 59.78034053299922 7.394344975946069 67.037856065211 H 0.0 **** 0.06
18956 C 19.70455738026807 6.110568871836705 27.73477253913984 C 0.0 **** -0.24
18957 H 18.76124772030849 6.275584906684685 27.21337295547147 H 0.0 **** 0.06
18958 H 20.44640730820492 6.825093503903673 27.37765890910964 H 0.0 **** 0.06
18959 H 20.0535422438415 5.096745455111574 27.54056515505448 H 0.0 **** 0.06
18960 H 19.55554304024829 6.2447265663574 28.805552291385823 H 0.0 **** 0.06
18961 C 35.76800867795359 84.95355035155691 36.17015573384646 C 0.0 **** -0.24
18962 H 35.777844745981085 85.9866288648615 36.51976980391828 H 0.0 **** 0.06
18963 H 36.00330370033366 84.28705864490627 37.00065317886782 H 0.0 **** 0.06
18964 H 36.509549210084884 84.83051105055686 35.38170674779997 H 0.0 **** 0.06
18965 H 34.77864636411769 84.71224260639544 35.77981391098581 H 0.0 **** 0.06
18966 C 111.00574140284643 51.351855478591375 9.414714956000267 C 0.0 **** -0.24
18967 H 111.7593753016033 50.58425940896558 9.240502179681158 H 0.0 **** 0.06
18968 H 110.11424261613196 51.12390649237322 8.829110876813758 H 0.0 **** 0.06
18969 H 111.39950791152945 52.322775593014754 9.114723375564381 H 0.0 **** 0.06
18970 H 110.74833214087984 51.374853548908646 10.474239619653048 H 0.0 **** 0.06
18971 C 40.97574635518545 118.96143174552954 110.87454761979309 C 0.0 **** -0.24
18972 H 40.43739821964065 118.90885482981083 111.82143298569723 H 0.0 **** 0.06
18973 H 40.315572608490115 119.36031648466637 110.10356996787418 H 0.0 **** 0.06
18974 H 41.30769155084508 117.9636356253885 110.58945791348874 H 0.0 **** 0.06
18975 H 41.840336476431006 119.6149745272621 110.9859280700672 H 0.0 **** 0.06
18976 C 41.99564146679725 100.42873734260519 102.02402231944633 C 0.0 **** -0.24
18977 H 41.15229744881108 99.97713498694543 102.54533127314167 H 0.0 **** 0.06
18978 H 42.60850919481507 100.98196837768381 102.73693644156037 H 0.0 **** 0.06
18979 H 41.62665615010101 101.10959081976529 101.25604423625694 H 0.0 **** 0.06
18980 H 42.59580582013987 99.64711251839003 101.55865551569508 H 0.0 **** 0.06
18981 C 91.32130930679433 39.50459127276221 115.71247521997903 C 0.0 **** -0.24
18982 H 91.04987788275291 38.69009413253278 116.38442559662197 H 0.0 **** 0.06
18983 H 92.3942794120282 39.47805979032643 115.5243313973021 H 0.0 **** 0.06
18984 H 91.05538290118045 40.456804402663266 116.17002209246594 H 0.0 **** 0.06
18985 H 90.78374916450836 39.39226951525072 114.77016641967664 H 0.0 **** 0.06
18986 C 129.34613571705682 79.13585500643224 121.76667081300513 C 0.0 **** -0.24
18987 H 128.47617171605273 78.73491848198707 121.24790460771987 H 0.0 **** 0.06
18988 H 129.0185560867914 79.72426216742393 122.62333963176485 H 0.0 **** 0.06
18989 H 129.91424791683195 79.7699587675159 121.08591472430629 H 0.0 **** 0.06
18990 H 129.97568958419663 78.3145113282272 122.10813437261203 H 0.0 **** 0.06
18991 C 48.68751110405839 57.28769286679906 31.424273358938024 C 0.0 **** -0.24
18992 H 49.337087032417514 57.71572087687443 32.18735133895825 H 0.0 **** 0.06
18993 H 48.0636142894009 56.51364396172562 31.870621802226083 H 0.0 **** 0.06
18994 H 49.295999544518565 56.85167850166991 30.631055071575247 H 0.0 **** 0.06
18995 H 48.053586991208135 58.07078886667037 31.007162086852546 H 0.0 **** 0.06
18996 C 27.08910587986837 96.16325247951866 68.91105911471581 C 0.0 **** -0.24
18997 H 26.791814390284358 96.64029329839951 67.9771641933809 H 0.0 **** 0.06
18998 H 27.69201030375124 95.2809741368649 68.69306797701537 H 0.0 **** 0.06
18999 H 26.199803886336852 95.86745114935084 69.46746852068256 H 0.0 **** 0.06
19000 H 27.67374164740994 96.864668807647 69.50751624928837 H 0.0 **** 0.06
19001 C 81.89256973347722 14.800920313666012 52.07887338026683 C 0.0 **** -0.24
19002 H 81.93395072734575 15.870845639591863 51.871913581349304 H 0.0 **** 0.06
19003 H 82.16426244124014 14.246444860913442 51.18058726517506 H 0.0 **** 0.06
19004 H 80.88155843602613 14.528968137988585 52.382638221713876 H 0.0 **** 0.06
19005 H 82.59043279205238 14.559813160968503 52.880883604846076 H 0.0 **** 0.06
19006 C 27.42817137020765 88.89464240723365 92.40712593105876 C 0.0 **** -0.24
19007 H 26.47334623113332 89.41461613115732 92.33392656685122 H 0.0 **** 0.06
19008 H 28.101517079664433 89.2607317633311 91.63118643838446 H 0.0 **** 0.06
19009 H 27.269890341045198 87.8242276683438 92.27633872922432 H 0.0 **** 0.06
19010 H 27.868255072137714 89.07991824713972 93.38725557503568 H 0.0 **** 0.06
19011 C 34.6957558279178 141.75144020165743 84.53428826469168 C 0.0 **** -0.24
19012 H 34.728141526864036 142.83859962909358 84.46140857036997 H 0.0 **** 0.06
19013 H 35.35969259660246 141.42121449679559 85.33384369942969 H 0.0 **** 0.06
19014 H 35.01980563692407 141.31412345082487 83.58882395183059 H 0.0 **** 0.06
19015 H 33.67755073435439 141.43219404888774 84.75199698857907 H 0.0 **** 0.06
19016 C 62.75008962505464 45.00838203096038 110.52434587015682 C 0.0 **** -0.24
19017 H 62.24413300301913 45.70862132401305 111.18899519482943 H 0.0 **** 0.06
19018 H 63.36214039754259 45.56194637119697 109.81178268039969 H 0.0 **** 0.06
19019 H 62.008648885208714 44.41745223367951 109.98648947145233 H 0.0 **** 0.06
19020 H 63.38577403612376 44.344887500868936 111.11198717379006 H 0.0 **** 0.06
19021 C 127.16886125282238 129.23886307171216 52.78698672508676 C 0.0 **** -0.24
19022 H 126.85087156645989 128.22631657266734 52.53784809355787 H 0.0 **** 0.06
19023 H 127.33125950457716 129.80418965606916 51.869408636219646 H 0.0 **** 0.06
19024 H 128.09597186310793 129.19754743018206 53.35791648534726 H 0.0 **** 0.06
19025 H 126.3966513913241 129.72552699951524 53.38263178771945 H 0.0 **** 0.06
19026 C 127.11716127949492 25.33013345115151 102.29481479879041 C 0.0 **** -0.24
19027 H 128.17271932163922 25.372165552673863 102.56444128716632 H 0.0 **** 0.06
19028 H 126.52533485598974 25.813172445464772 103.07184805333472 H 0.0 **** 0.06
19029 H 126.80875494711592 24.28921809444411 102.19692887003927 H 0.0 **** 0.06
19030 H 126.96411747517817 25.845176546649228 101.34643243867711 H 0.0 **** 0.06
19031 C 99.03617508037112 82.65214997123402 43.11437153961447 C 0.0 **** -0.24
19032 H 98.58636743864699 83.31854853326067 42.379094114219924 H 0.0 **** 0.06
19033 H 98.75548647825923 81.6224290641608 42.88978364617412 H 0.0 **** 0.06
19034 H 98.67986055868948 82.91731888876453 44.10969575631998 H 0.0 **** 0.06
19035 H 100.12108588800584 82.75005796523905 43.077759324422686 H 0.0 **** 0.06
19036 C 143.11443337371242 46.73560390092217 116.29999824988178 C 0.0 **** -0.24
19037 H 142.46344227195598 46.49129440373102 115.46096468493121 H 0.0 **** 0.06
19038 H 143.9752894198009 47.30030627831948 115.93984403582576 H 0.0 **** 0.06
19039 H 143.4558427496863 45.815582652570356 116.77551531716236 H 0.0 **** 0.06
19040 H 142.56379351877138 47.335905410777826 117.0247387378939 H 0.0 **** 0.06
19041 C 111.03533090717663 115.48027418265282 68.38460513330665 C 0.0 **** -0.24
19042 H 110.84823598400702 114.40745131280683 68.41340475910647 H 0.0 **** 0.06
19043 H 110.5683056011671 115.9060249307443 67.49614996401664 H 0.0 **** 0.06
19044 H 112.11016906585776 115.66053834053672 68.35154918440134 H 0.0 **** 0.06
19045 H 110.61537640507565 115.94674324783169 69.27524236807821 H 0.0 **** 0.06
19046 C 41.47742665645771 86.86017732067289 48.26476336435958 C 0.0 **** -0.24
19047 H 42.29339194028111 87.16793412090469 48.918042223889444 H 0.0 **** 0.06
19048 H 41.63197208763643 85.8276809871809 47.952441574896696 H 0.0 **** 0.06
19049 H 41.452534364492095 87.50620826045534 47.38633843259517 H 0.0 **** 0.06
19050 H 40.53233876861606 86.94085150398423 48.80086915002987 H 0.0 **** 0.06
19051 C 63.610299893243564 123.47349926412458 137.68817196450306 C 0.0 **** -0.24
19052 H 63.81275086457434 124.25368145853173 138.4220624544974 H 0.0 **** 0.06
19053 H 63.66128148885248 122.49843572677294 138.17304090191413 H 0.0 **** 0.06
19054 H 64.35226464588841 123.52300453051174 136.8913461229606 H 0.0 **** 0.06
19055 H 62.61470605501415 123.61866093302244 137.26845550023975 H 0.0 **** 0.06
19056 C 74.2443731668319 47.447186479790304 65.79687758886178 C 0.0 **** -0.24
19057 H 73.79007788062319 48.18390954220229 66.45876789787312 H 0.0 **** 0.06
19058 H 73.4667383632011 46.957007975971834 65.21060626147121 H 0.0 **** 0.06
19059 H 74.77550008509576 46.702766205643485 66.39127023032582 H 0.0 **** 0.06
19060 H 74.9464991211475 47.94493978388738 65.12735109320579 H 0.0 **** 0.06
19061 C 135.053747385354 98.23815905194947 96.54951857274764 C 0.0 **** -0.24
19062 H 135.60900046631042 97.31074140465385 96.69210695898545 H 0.0 **** 0.06
19063 H 134.9874230558127 98.4612399109081 95.48473084607443 H 0.0 **** 0.06
19064 H 135.56984690783028 99.05091620419368 97.05932337401063 H 0.0 **** 0.06
19065 H 134.05107209230113 98.12763771895683 96.9616898477388 H 0.0 **** 0.06
19066 C 113.2837633627075 80.60225975357434 89.10259994698124 C 0.0 **** -0.24
19067 H 112.91023050872795 81.58303776590174 89.39486102902397 H 0.0 **** 0.06
19068 H 113.14456188245165 80.4648298674091 88.03013275126467 H 0.0 **** 0.06
19069 H 112.7364500853781 79.82920736510584 89.64256578364093 H 0.0 **** 0.06
19070 H 114.34411169148163 80.53111051218366 89.3432658344756 H 0.0 **** 0.06
19071 C 120.29451747700172 88.97469335909933 82.14050696186234 C 0.0 **** -0.24
19072 H 120.04440664193204 88.80975959897908 83.18773198482228 H 0.0 **** 0.06
19073 H 119.37998436981103 88.99988522855455 81.54760099863347 H 0.0 **** 0.06
19074 H 120.93385808255461 88.16459788116505 81.78707538042514 H 0.0 **** 0.06
19075 H 120.82137066488137 89.92398494801695 82.03780279758152 H 0.0 **** 0.06
19076 C 15.222627720533467 79.32546604265124 49.969324254681425 C 0.0 **** -0.24
19077 H 15.120149454425587 78.25803522997003 49.77420235350107 H 0.0 **** 0.06
19078 H 14.93536970894985 79.53578586216929 50.999199137264924 H 0.0 **** 0.06
19079 H 14.576910033185754 79.88299621487084 49.29023831850401 H 0.0 **** 0.06
19080 H 16.259170492481474 79.62509413361641 49.81146346217011 H 0.0 **** 0.06
19081 C 64.08965881986455 133.17049750126984 47.33755463018582 C 0.0 **** -0.24
19082 H 64.02745527533025 132.45197335158934 48.154572771164055 H 0.0 **** 0.06
19083 H 63.75980130588991 134.14897692085253 47.687898718480824 H 0.0 **** 0.06
19084 H 63.45225258791558 132.84358197224367 46.516046610824844 H 0.0 **** 0.06
19085 H 65.12195857951298 133.23766706112184 46.990734136345964 H 0.0 **** 0.06
19086 C 92.15187203884119 121.12657366182965 38.0162316772182 C 0.0 **** -0.24
19087 H 91.0830182832708 121.01129130155802 38.19867225178422 H 0.0 **** 0.06
19088 H 92.30453803212876 121.78128821377992 37.15833259243132 H 0.0 **** 0.06
19089 H 92.59208846500263 120.15082719006499 37.811509417935866 H 0.0 **** 0.06
19090 H 92.62570095380951 121.56189362085875 38.89576312451297 H 0.0 **** 0.06
19091 C 59.234177772458736 61.53908483558817 18.745510369977268 C 0.0 **** -0.24
19092 H 58.16756701448267 61.42693208653208 18.550861585605247 H 0.0 **** 0.06
19093 H 59.39024528596235 62.362091465130646 19.444397345378917 H 0.0 **** 0.06
19094 H 59.754360128648614 61.75027118621112 17.812219710076647 H 0.0 **** 0.06
19095 H 59.622981409252276 60.61748347520262 19.17793670485557 H 0.0 **** 0.06
19096 C 76.99828782978881 86.76054219418066 67.89388954136665 C 0.0 **** -0.24
19097 H 76.0460307301272 87.24869950338945 68.09996654225193 H 0.0 **** 0.06
19098 H 77.5322611649135 87.31635614592427 67.1222748165624 H 0.0 **** 0.06
19099 H 76.81792456126777 85.74282118348543 67.5496369086153 H 0.0 **** 0.06
19100 H 77.59738766536157 86.73635685279068 68.80440882852923 H 0.0 **** 0.06
19101 C 16.122793439638883 85.3937472476704 113.44434330412595 C 0.0 **** -0.24
19102 H 16.248474691669458 85.41519460649707 112.36243846908708 H 0.0 **** 0.06
19103 H 15.065234492349532 85.49537839867426 113.68910666601751 H 0.0 **** 0.06
19104 H 16.680591871757144 86.21665163019262 113.89158618335408 H 0.0 **** 0.06
19105 H 16.49603516872611 84.44662481588185 113.83425049735276 H 0.0 **** 0.06
19106 C 70.14330102458494 118.57869045498055 57.45140488743806 C 0.0 **** -0.24
19107 H 70.9680747519192 118.47133166739766 58.157466769916326 H 0.0 **** 0.06
19108 H 70.54248106500546 118.71863905121629 56.44620011357192 H 0.0 **** 0.06
19109 H 69.54025186332983 119.44336099344414 57.728268500010344 H 0.0 **** 0.06
19110 H 69.52589581795934 117.68149941420572 57.47628228617228 H 0.0 **** 0.06
19111 C 96.22832007930668 75.50869658216723 4.934587593820368 C 0.0 **** -0.24
19112 H 96.93096561957242 75.47054060292047 5.766665857577607 H 0.0 **** 0.06
19113 H 96.02270277017266 74.49558808484781 4.586687232885396 H 0.0 **** 0.06
19114 H 96.66091411460741 76.09094460362812 4.121435390094234 H 0.0 **** 0.06
19115 H 95.30034870604496 75.97620562636533 5.26351206997262 H 0.0 **** 0.06
19116 C 75.97055706689146 65.87741970399232 82.03699711508668 C 0.0 **** -0.24
19117 H 75.97189561925609 65.0784030613578 81.29501898400949 H 0.0 **** 0.06
19118 H 75.76560976171575 66.82875384899373 81.54474017213954 H 0.0 **** 0.06
19119 H 76.94538481292645 65.92188638165524 82.52269401586372 H 0.0 **** 0.06
19120 H 75.20090596064514 65.68029642231674 82.78300010912179 H 0.0 **** 0.06
19121 C 21.0687733822609 36.92662617590265 102.74873881706831 C 0.0 **** -0.24
19122 H 21.353996429721434 36.93659365977373 103.80086161051709 H 0.0 **** 0.06
19123 H 20.81438723467447 35.90922561764023 102.45028828055625 H 0.0 **** 0.06
19124 H 21.901202505588515 37.2856730939463 102.14288075012237 H 0.0 **** 0.06
19125 H 20.205507359059382 37.575012332250274 102.60092462707736 H 0.0 **** 0.06
19126 C 3.2050690916882445 92.57101346165102 37.074373089842055 C 0.0 **** -0.24
19127 H 3.5356227973045407 93.52070264529199 37.49414632298391 H 0.0 **** 0.06
19128 H 2.640043477013876 92.0189905727172 37.825867406893025 H 0.0 **** 0.06
19129 H 4.073339443980046 91.98602664114414 36.76928300677133 H 0.0 **** 0.06
19130 H 2.5712706484546572 92.75833398745088 36.208195622720126 H 0.0 **** 0.06
19131 C 144.83761518556196 4.429508104291017 17.364016294067426 C 0.0 **** -0.24
19132 H 145.10786173908616 3.6514177181868206 16.648849790921844 H 0.0 **** 0.06
19133 H 143.8691263149118 4.194690374267708 17.806521518073595 H 0.0 **** 0.06
19134 H 144.7799652005154 5.3887927688592185 16.851648048293384 H 0.0 **** 0.06
19135 H 145.59322386071196 4.479674900120727 18.14764164718693 H 0.0 **** 0.06
19136 C 20.650445830607907 126.64677865329455 141.31398389362099 C 0.0 **** -0.24
19137 H 20.879851769197302 127.6912897572162 141.1070000914288 H 0.0 **** 0.06
19138 H 19.678417097405458 126.39700758350176 140.8864695271101 H 0.0 **** 0.06
19139 H 20.624857647234364 126.4872705440578 142.3925330856271 H 0.0 **** 0.06
19140 H 21.416704922386458 126.01124592319243 140.87098161950905 H 0.0 **** 0.06
19141 C 115.36116187552874 48.981045850022994 10.687691157120128 C 0.0 **** -0.24
19142 H 116.15330907701524 48.31630027979196 11.032718762796094 H 0.0 **** 0.06
19143 H 114.73125710448063 48.45311838697458 9.971309628004576 H 0.0 **** 0.06
19144 H 115.80350105395009 49.85446885723891 10.208613714842045 H 0.0 **** 0.06
19145 H 114.75739444786551 49.29917213394138 11.538395286351601 H 0.0 **** 0.06
19146 C 13.855992639373355 26.00046082351895 129.6619551651131 C 0.0 **** -0.24
19147 H 13.680911040185933 26.996134967466986 129.25405279647788 H 0.0 **** 0.06
19148 H 14.187745625733726 26.08555927109748 130.69737882890382 H 0.0 **** 0.06
19149 H 14.624836326928936 25.497775310961885 129.07431190493827 H 0.0 **** 0.06
19150 H 12.932349563087875 25.42378505499397 129.62136713946342 H 0.0 **** 0.06
19151 C 41.904537667887794 41.40148874886992 133.35791511027654 C 0.0 **** -0.24
19152 H 40.91153675369356 41.80135196966293 133.56481246088322 H 0.0 **** 0.06
19153 H 41.81673899996508 40.37232531780805 133.00976726512198 H 0.0 **** 0.06
19154 H 42.50342267842504 41.42757842476536 134.26860715244288 H 0.0 **** 0.06
19155 H 42.38669436383904 42.00604046069233 132.58885132740375 H 0.0 **** 0.06
19156 C 131.85490085010946 108.70739201492462 19.067313483204146 C 0.0 **** -0.24
19157 H 132.66305671632261 109.32575813925571 19.45963272259152 H 0.0 **** 0.06
19158 H 131.05796087665823 109.34771314445327 18.691144157220208 H 0.0 **** 0.06
19159 H 131.4663841414019 108.07166760796626 19.863428535365387 H 0.0 **** 0.06
19160 H 132.23538623175557 108.08402832573769 18.257636684819772 H 0.0 **** 0.06
19161 C 58.698005552113386 107.57541403531619 144.8391463900836 C 0.0 **** -0.24
19162 H 58.78284487462075 107.02350404934609 145.77558035985908 H 0.0 **** 0.06
19163 H 59.38082988875537 108.42456934643431 144.8556405330862 H 0.0 **** 0.06
19164 H 57.67578321676588 107.9325230182329 144.71934442117973 H 0.0 **** 0.06
19165 H 58.95384094043476 106.91855365492293 144.00706427723276 H 0.0 **** 0.06
19166 C 60.66354871686838 78.22846182869509 51.30376059910908 C 0.0 **** -0.24
19167 H 61.59546735692021 78.0796662466197 51.84950086193099 H 0.0 **** 0.06
19168 H 60.85032082432025 78.13559590773687 50.2339078070799 H 0.0 **** 0.06
19169 H 60.27268456436025 79.22302385056403 51.52009026107078 H 0.0 **** 0.06
19170 H 59.93805916294656 77.47692809947009 51.613924788055996 H 0.0 **** 0.06
19171 C 19.137827260767892 141.14010635696675 140.73361571537853 C 0.0 **** -0.24
19172 H 19.722542912551802 140.22573849020674 140.83772113140415 H 0.0 **** 0.06
19173 H 18.58141787396852 141.32098382331932 141.6532563139 H 0.0 **** 0.06
19174 H 18.442104139699353 141.03226904632996 139.9017952256902 H 0.0 **** 0.06
19175 H 19.806868795686256 141.9782376602333 140.54131076480965 H 0.0 **** 0.06
19176 C 4.206586600167384 62.02945751536895 56.04253645301243 C 0.0 **** -0.24
19177 H 3.1541181632038615 61.74622988102065 56.02793530336385 H 0.0 **** 0.06
19178 H 4.563225073368528 62.15505408151152 55.01954453783607 H 0.0 **** 0.06
19179 H 4.785550009195958 61.248120280123416 56.53556933358034 H 0.0 **** 0.06
19180 H 4.322861032794776 62.96604968142309 56.58703643283269 H 0.0 **** 0.06
19181 C 15.013964147361833 27.323323999344936 89.59894484692481 C 0.0 **** -0.24
19182 H 15.352695326675843 27.30423981872471 90.63486998167981 H 0.0 **** 0.06
19183 H 15.590159196874112 26.605489708085003 89.01534302904908 H 0.0 **** 0.06
19184 H 15.156714088604275 28.323564711896267 89.18965047874853 H 0.0 **** 0.06
19185 H 13.957055455725964 27.061699776188902 89.55715199359976 H 0.0 **** 0.06
19186 C 132.11994712333944 134.88450979951836 51.85366500360061 C 0.0 **** -0.24
19187 H 131.21874972339197 135.32163873306206 51.424965352313365 H 0.0 **** 0.06
19188 H 132.375920840022 135.41047226084675 52.77393826952735 H 0.0 **** 0.06
19189 H 132.9412124551814 134.9755000234705 51.14225445868435 H 0.0 **** 0.06
19190 H 131.9437814372477 133.83160108838564 52.07272155601663 H 0.0 **** 0.06
19191 C 37.531424051123736 93.02030466911052 143.53788471077473 C 0.0 **** -0.24
19192 H 37.63825290827589 94.03108976287587 143.92955921374414 H 0.0 **** 0.06
19193 H 38.35341376764896 92.40160923492024 143.90081011936812 H 0.0 **** 0.06
19194 H 37.55120630616781 93.04830569511714 142.44888955148738 H 0.0 **** 0.06
19195 H 36.58426537728542 92.59870441830466 143.87308097069413 H 0.0 **** 0.06
19196 C 24.63337494296576 93.80407737697232 132.8925864517111 C 0.0 **** -0.24
19197 H 24.599787328631976 94.22436096192536 131.88812320394547 H 0.0 **** 0.06
19198 H 25.31101410369226 94.39289115093703 133.51130078816985 H 0.0 **** 0.06
19199 H 24.987721829966617 92.7744196073042 132.8447842047165 H 0.0 **** 0.06
19200 H 23.633551776374574 93.82382316091304 133.32795606555788 H 0.0 **** 0.06
19201 C 94.76650821299364 4.248346829248696 57.41789239019761 C 0.0 **** -0.24
19202 H 94.6830026119247 3.8289913109827154 56.41554383030142 H 0.0 **** 0.06
19203 H 95.63021557377442 4.913037312662198 57.463292055476785 H 0.0 **** 0.06
19204 H 94.8898001545806 3.441384977082045 58.140262494283945 H 0.0 **** 0.06
19205 H 93.86299481408281 4.810945241704282 57.65223497316616 H 0.0 **** 0.06
19206 C 67.6440833422047 110.73651831644808 120.39042305819966 C 0.0 **** -0.24
19207 H 67.19449694764371 110.85215302720808 121.37662820106256 H 0.0 **** 0.06
19208 H 68.27797110812362 109.85001805851478 120.38173542958477 H 0.0 **** 0.06
19209 H 68.24502849998701 111.61562443711323 120.15989930941062 H 0.0 **** 0.06
19210 H 66.8573985946754 110.62918827680899 119.64310900066376 H 0.0 **** 0.06
19211 C 38.772226915509094 125.25764049495314 48.25102527731241 C 0.0 **** -0.24
19212 H 38.86048236567652 124.55919465253382 49.08334389949597 H 0.0 **** 0.06
19213 H 38.12212993825642 124.83093572424295 47.48623058507714 H 0.0 **** 0.06
19214 H 39.75926249444535 125.4437149327766 47.827660226956624 H 0.0 **** 0.06
19215 H 38.34654036758741 126.19632485403244 48.60764355365485 H 0.0 **** 0.06
19216 C 112.56721069198925 82.69923039493204 16.039143547692788 C 0.0 **** -0.24
19217 H 113.29637118915822 83.23539054441426 15.430821915860975 H 0.0 **** 0.06
19218 H 111.5885305186374 83.16713422560059 15.928648944525492 H 0.0 **** 0.06
19219 H 112.87156776529115 82.7346197647438 17.084705222781395 H 0.0 **** 0.06
19220 H 112.51441308868432 81.66125663177098 15.711113423381335 H 0.0 **** 0.06
19221 C 132.10743573042043 102.93088578230444 120.36637065349369 C 0.0 **** -0.24
19222 H 132.91288167177288 102.2405660355918 120.6174431308199 H 0.0 **** 0.06
19223 H 131.7325559075254 102.7038447763168 119.36868765369685 H 0.0 **** 0.06
19224 H 132.486074888441 103.95362613900738 120.38918567302981 H 0.0 **** 0.06
19225 H 131.30008923057713 102.82681084572673 121.09108433637992 H 0.0 **** 0.06
19226 C 95.01118551812054 81.39373518153454 77.4178788667318 C 0.0 **** -0.24
19227 H 94.16728667995662 81.86965899290242 76.919096203869 H 0.0 **** 0.06
19228 H 95.83882347452754 81.29411803515022 76.71489609528366 H 0.0 **** 0.06
19229 H 94.71537319753803 80.40682128817377 77.77321239992173 H 0.0 **** 0.06
19230 H 95.3249510083776 82.0051885765321 78.26366243276811 H 0.0 **** 0.06
19231 C 7.295319749247007 117.91294904166308 62.08444295154297 C 0.0 **** -0.24
19232 H 6.301594403921602 118.33603626993751 62.233510246634665 H 0.0 **** 0.06
19233 H 7.841097459192326 117.92833718702535 63.028461936657806 H 0.0 **** 0.06
19234 H 7.834776846719617 118.50487147601855 61.34410665737309 H 0.0 **** 0.06
19235 H 7.2042769627019325 116.88589182987234 61.73331260821337 H 0.0 **** 0.06
19236 C 42.830432400260236 65.63105115014712 46.69768288956341 C 0.0 **** -0.24
19237 H 42.771338517361215 64.57135647373171 46.44959218545135 H 0.0 **** 0.06
19238 H 41.88919147852947 65.95269728223344 47.143919606507055 H 0.0 **** 0.06
19239 H 43.01677700016627 66.20620185860916 45.79015311369862 H 0.0 **** 0.06
19240 H 43.643248989938684 65.79493692724614 47.40469032153743 H 0.0 **** 0.06
19241 C 144.42177855375286 58.75290152397197 128.12117309597582 C 0.0 **** -0.24
19242 H 144.76147222547678 57.71912715402965 128.187586007979 H 0.0 **** 0.06
19243 H 143.52994344969625 58.80302553034548 127.4950048205774 H 0.0 **** 0.06
19244 H 145.20852590653232 59.3661180207759 127.68353402224957 H 0.0 **** 0.06
19245 H 144.18573359375426 59.12169418636617 129.1190531582547 H 0.0 **** 0.06
19246 C 30.864002758787592 82.8767782561859 83.76925637776117 C 0.0 **** -0.24
19247 H 30.8252537197435 82.61796412285798 82.71176708959723 H 0.0 **** 0.06
19248 H 30.65147089412227 81.99059129256682 84.3677384523275 H 0.0 **** 0.06
19249 H 30.12107045554569 83.64609276357834 83.98183981194484 H 0.0 **** 0.06
19250 H 31.856903717361632 83.25290341104647 84.01538732269529 H 0.0 **** 0.06
19251 C 34.21850374149787 124.48250164633689 6.0137622731604665 C 0.0 **** -0.24
19252 H 34.70393466594473 124.85414951042011 5.110949107980389 H 0.0 **** 0.06
19253 H 34.17503252870142 123.39321109292939 5.980276392179007 H 0.0 **** 0.06
19254 H 33.20774526517829 124.88471212072739 6.073552609120043 H 0.0 **** 0.06
19255 H 34.78770104683372 124.79738487620725 6.888140255987196 H 0.0 **** 0.06
19256 C 64.0517298384436 17.95628787255896 111.41502771656343 C 0.0 **** -0.24
19257 H 64.11299154435608 18.868680060905092 110.82155959762434 H 0.0 **** 0.06
19258 H 63.37635230134478 18.11432061113328 112.25530427329204 H 0.0 **** 0.06
19259 H 65.04268589056919 17.698968397592353 111.78805138107822 H 0.0 **** 0.06
19260 H 63.675360555853416 17.144478946355378 110.79317138597588 H 0.0 **** 0.06
19261 C 74.00856675017938 37.089601848279 62.670385915805625 C 0.0 **** -0.24
19262 H 73.21432891853605 37.795225812961206 62.91109719661689 H 0.0 **** 0.06
19263 H 73.59401091713447 36.25104777772153 62.10973318599984 H 0.0 **** 0.06
19264 H 74.46077482910874 36.72259009697972 63.592049166798674 H 0.0 **** 0.06
19265 H 74.76720900215562 37.589456731812675 62.067790742140886 H 0.0 **** 0.06
19266 C 132.27411822284805 133.52022290219608 133.49300781216465 C 0.0 **** -0.24
19267 H 133.17676802119152 133.64289938838678 132.89426602547775 H 0.0 **** 0.06
19268 H 131.82895881771626 134.49711736904575 133.6833423280283 H 0.0 **** 0.06
19269 H 132.52930832840627 133.04546954443435 134.44064918669633 H 0.0 **** 0.06
19270 H 131.56303912033016 132.8948152104364 132.95406942323953 H 0.0 **** 0.06
19271 C 63.78563567520992 1.5336651834415669 102.7279448789671 C 0.0 **** -0.24
19272 H 63.19839073044139 1.0377346650494914 101.95588650118142 H 0.0 **** 0.06
19273 H 63.72990233739863 2.613659315361229 102.5890478078731 H 0.0 **** 0.06
19274 H 64.82476149112773 1.2119398082987907 102.65703488304327 H 0.0 **** 0.06
19275 H 63.390790333709205 1.271973056652783 103.7088685343732 H 0.0 **** 0.06
19276 C 91.5307046350553 82.96074511148565 110.79038376629529 C 0.0 **** -0.24
19277 H 91.52990578882236 83.3588649256109 109.77550008391904 H 0.0 **** 0.06
19278 H 92.4979845302731 83.15332705192883 111.2552382895231 H 0.0 **** 0.06
19279 H 91.34942389574624 81.88648684962497 110.75872357387152 H 0.0 **** 0.06
19280 H 90.74538592204891 83.44444365493133 111.37109034115622 H 0.0 **** 0.06
19281 C 32.206217901342654 103.0427023542211 105.04196694723808 C 0.0 **** -0.24
19282 H 32.49781856708012 102.16379990787712 104.46584153070782 H 0.0 **** 0.06
19283 H 32.86774306620117 103.8740053497271 104.79389281539932 H 0.0 **** 0.06
19284 H 32.28353815557881 102.82154856697662 106.10624484988162 H 0.0 **** 0.06
19285 H 31.178376727702982 103.31072223170699 104.79972592236874 H 0.0 **** 0.06
19286 C 119.9061328767045 123.00024269121792 130.2155639446864 C 0.0 **** -0.24
19287 H 119.18931363910818 123.4038976878584 129.50156768891384 H 0.0 **** 0.06
19288 H 120.24313674066318 123.79527044926584 130.88170523004385 H 0.0 **** 0.06
19289 H 120.76162670299024 122.58911144967449 129.67791778496263 H 0.0 **** 0.06
19290 H 119.43209690293443 122.21218901114982 130.80084097091515 H 0.0 **** 0.06
19291 C 43.131271632644484 82.19623495164117 113.22766113578098 C 0.0 **** -0.24
19292 H 43.044064194585246 81.21721452675514 113.69916912095823 H 0.0 **** 0.06
19293 H 43.89208399834109 82.78207325377954 113.74489704781507 H 0.0 **** 0.06
19294 H 42.17384958229911 82.71284021771092 113.28317553254453 H 0.0 **** 0.06
19295 H 43.41687736851077 82.07147533600171 112.18352500205015 H 0.0 **** 0.06
19296 C 140.66442350034305 41.521121315295275 46.813132377349206 C 0.0 **** -0.24
19297 H 141.33429297282802 42.31609895784966 47.13861397556859 H 0.0 **** 0.06
19298 H 140.8338146307542 40.63234232546247 47.42069425348046 H 0.0 **** 0.06
19299 H 140.85928716608603 41.28774188419321 45.766068330131915 H 0.0 **** 0.06
19300 H 139.6306236717562 41.84707662973712 46.92597265032461 H 0.0 **** 0.06
19301 C 68.37629866598233 62.16622299277603 135.976649778658 C 0.0 **** -0.24
19302 H 67.74155903861191 61.48708381739033 136.5450998165024 H 0.0 **** 0.06
19303 H 67.87637558807764 63.12986865739268 135.87422963410907 H 0.0 **** 0.06
19304 H 68.56265386729005 61.74689084063638 134.98838152359528 H 0.0 **** 0.06
19305 H 69.32338815063326 62.30177601364309 136.4998818759989 H 0.0 **** 0.06
19306 C 92.1148005810982 47.408616264369556 49.907989150765815 C 0.0 **** -0.24
19307 H 92.22896197203337 47.567664060236396 50.97956033644638 H 0.0 **** 0.06
19308 H 92.95952816104275 47.852293757396325 49.38230917646317 H 0.0 **** 0.06
19309 H 91.18896627928027 47.87389573621449 49.567998261005386 H 0.0 **** 0.06
19310 H 92.07979754782863 46.33835150273042 49.70177791761634 H 0.0 **** 0.06
19311 C 123.0009996452215 17.13105335506583 132.01566171223882 C 0.0 **** -0.24
19312 H 122.91730247221437 16.523177929469 131.115009654738 H 0.0 **** 0.06
19313 H 122.59577376915666 18.12425503685614 131.82194720942965 H 0.0 **** 0.06
19314 H 124.0503184893422 17.21538074102682 132.299606746543 H 0.0 **** 0.06
19315 H 122.44299931341737 16.660202397501735 132.82440138555393 H 0.0 **** 0.06
19316 C 9.179383981360672 26.754047324573747 136.51433999323547 C 0.0 **** -0.24
19317 H 8.805841548166228 26.470079381518275 135.53136335026164 H 0.0 **** 0.06
19318 H 10.26865637013276 26.705422868344215 136.5168411773264 H 0.0 **** 0.06
19319 H 8.782763253591952 26.07118626987304 137.2655527907039 H 0.0 **** 0.06
19320 H 8.860982959406982 27.77071118531086 136.7437855407531 H 0.0 **** 0.06
19321 C 106.35710934257672 93.77357959536857 28.422376375257755 C 0.0 **** -0.24
19322 H 107.03762518396645 94.18857896270771 29.166702691840243 H 0.0 **** 0.06
19323 H 106.36642214870069 94.40347223987821 27.53269697422286 H 0.0 **** 0.06
19324 H 105.34813431334614 93.73784344947173 28.83294452393676 H 0.0 **** 0.06
19325 H 106.67768475837669 92.76627702520166 28.157884787648072 H 0.0 **** 0.06
19326 C 0.25273525033139776 9.163384470848541 89.68020599189225 C 0.0 **** -0.24
19327 H 1.2383186297937812 9.008467547772426 89.24078471187437 H 0.0 **** 0.06
19328 H 0.2686769682469503 10.060451751570753 90.29991486880357 H 0.0 **** 0.06
19329 H -0.010622699635263189 8.302194295873562 90.29360140460716 H 0.0 **** 0.06
19330 H -0.4838517551919779 9.28357204484999 88.88695423738471 H 0.0 **** 0.06
19331 C 115.40815471861718 62.82028248676639 115.30788745252835 C 0.0 **** -0.24
19332 H 114.65561471923722 63.58652672226884 115.12158334722056 H 0.0 **** 0.06
19333 H 115.66395340922206 62.811779392508356 116.36763395241974 H 0.0 **** 0.06
19334 H 116.2997901529318 63.03750543168431 114.71912827172065 H 0.0 **** 0.06
19335 H 115.01175023598834 61.84612214594725 115.02095187014555 H 0.0 **** 0.06
19336 C 62.30488541204048 21.780098542100774 3.3740884638250286 C 0.0 **** -0.24
19337 H 62.73776347281026 22.77430012073114 3.259455399314305 H 0.0 **** 0.06
19338 H 62.15714445820768 21.567438057134638 4.43311209250794 H 0.0 **** 0.06
19339 H 62.97811669869236 21.03879200220021 2.94492987450613 H 0.0 **** 0.06
19340 H 61.34523594956784 21.741392397869674 2.8574341356725164 H 0.0 **** 0.06
19341 C 75.60795085422524 81.67237261095529 86.30102239300226 C 0.0 **** -0.24
19342 H 76.47804706147804 81.36104506337473 85.72198379669308 H 0.0 **** 0.06
19343 H 75.86912392798229 82.53585985509513 86.91292051134218 H 0.0 **** 0.06
19344 H 75.28743297722997 80.85266299338788 86.94384843490172 H 0.0 **** 0.06
19345 H 74.79737333462765 81.93940781558946 85.62206493179912 H 0.0 **** 0.06
19346 C 123.15347803812594 69.33130024301467 16.628447921836155 C 0.0 **** -0.24
19347 H 123.69269947705928 69.37863792456253 17.575460253179628 H 0.0 **** 0.06
19348 H 122.98357861132004 68.28789152823667 16.35924833123446 H 0.0 **** 0.06
19349 H 123.74456043702665 69.8153313240895 15.850432212024884 H 0.0 **** 0.06
19350 H 122.19585779169111 69.84206301126093 16.72943680794949 H 0.0 **** 0.06
19351 C 49.470418124028924 131.11322809817142 88.89694320202383 C 0.0 **** -0.24
19352 H 50.298765758169225 130.64020888634252 88.36811526912982 H 0.0 **** 0.06
19353 H 49.557595437469104 130.90913000753375 89.9645508185591 H 0.0 **** 0.06
19354 H 48.527649501112364 130.71345579471318 88.5251229872701 H 0.0 **** 0.06
19355 H 49.500478695081824 132.1897466671216 88.7285952566674 H 0.0 **** 0.06
19356 C 59.52623983044418 144.6776390366271 76.72300038316274 C 0.0 **** -0.24
19357 H 58.63317444940991 144.29404552785132 76.22945489372472 H 0.0 **** 0.06
19358 H 59.480560524030835 144.44677916445977 77.78759375377348 H 0.0 **** 0.06
19359 H 59.57992980561484 145.75758294204297 76.58666466258751 H 0.0 **** 0.06
19360 H 60.41047363034443 144.2122936866976 76.28773589032448 H 0.0 **** 0.06
19361 C 59.889927381549484 145.53396259552164 144.75373079873955 C 0.0 **** -0.24
19362 H 60.28618763445084 146.52728381534263 144.96346311607837 H 0.0 **** 0.06
19363 H 58.8318636605523 145.61244543204293 144.5007593164822 H 0.0 **** 0.06
19364 H 60.00720360523073 144.90278708348052 145.63432868333467 H 0.0 **** 0.06
19365 H 60.432159568572814 145.09628465350113 143.91653721325122 H 0.0 **** 0.06
19366 C 117.34326097689136 37.79309067101377 132.265948774713 C 0.0 **** -0.24
19367 H 117.87372236420264 37.50242934174176 133.17350079347378 H 0.0 **** 0.06
19368 H 117.40516492617623 36.986478314031785 131.53490750577944 H 0.0 **** 0.06
19369 H 117.7969173134832 38.69411047545768 131.85388554215655 H 0.0 **** 0.06
19370 H 116.29797045763318 37.98815694967581 132.50497337844257 H 0.0 **** 0.06
19371 C 137.1159798944303 27.46312547323557 97.87404853148978 C 0.0 **** -0.24
19372 H 136.9431890232469 26.483960505673075 97.42824123529036 H 0.0 **** 0.06
19373 H 136.78984055436936 28.23983425306095 97.18226568752964 H 0.0 **** 0.06
19374 H 138.17842578187367 27.584567329612575 98.08321227754767 H 0.0 **** 0.06
19375 H 136.55165109415572 27.542222431559196 98.80376441074802 H 0.0 **** 0.06
19376 C 142.85577320098315 38.70168400414906 126.92571416449675 C 0.0 **** -0.24
19377 H 142.07815661339748 39.42306293780754 126.67430656515268 H 0.0 **** 0.06
19378 H 143.8016675168421 39.022590542514564 126.49082018005936 H 0.0 **** 0.06
19379 H 142.58509904817248 37.72395594530997 126.5279916334558 H 0.0 **** 0.06
19380 H 142.9561194632064 38.63948361542978 128.00924664228367 H 0.0 **** 0.06
19381 C 23.639470021462394 62.22604790458146 86.85965467152565 C 0.0 **** -0.24
19382 H 22.648452968697896 62.067677475820545 86.43280345454312 H 0.0 **** 0.06
19383 H 24.192259496639743 62.93435785235292 86.24093357322474 H 0.0 **** 0.06
19384 H 24.174727653492766 61.27755199285096 86.89295079960232 H 0.0 **** 0.06
19385 H 23.539988567187137 62.623310863306045 87.86941724004356 H 0.0 **** 0.06
19386 C 68.87733748937819 83.0970765885736 75.10857517591126 C 0.0 **** -0.24
19387 H 69.63194710462137 83.88360703568856 75.09695256555591 H 0.0 **** 0.06
19388 H 69.35193699656485 82.14258293343298 75.33737878294194 H 0.0 **** 0.06
19389 H 68.39605071097797 83.039916603025 74.13268705081715 H 0.0 **** 0.06
19390 H 68.12988658597128 83.32316236829311 75.86924480020578 H 0.0 **** 0.06
19391 C 130.94023609603605 32.25370810669534 33.733258070446226 C 0.0 **** -0.24
19392 H 130.57158778233256 31.846726548033075 34.67503104960767 H 0.0 **** 0.06
19393 H 131.9196603442959 31.82846880675413 33.51250343733159 H 0.0 **** 0.06
19394 H 131.02345320430462 33.33748801401805 33.815659102999376 H 0.0 **** 0.06
19395 H 130.24483466152196 32.002167897860716 32.93300359343914 H 0.0 **** 0.06
19396 C 40.01504519129011 21.167520311799848 24.046279394356333 C 0.0 **** -0.24
19397 H 39.969810931193734 20.08820410676968 24.19510927087441 H 0.0 **** 0.06
19398 H 40.54606345075321 21.383453950382844 23.11940661412592 H 0.0 **** 0.06
19399 H 40.54233476871498 21.627144159740453 24.882588274204153 H 0.0 **** 0.06
19400 H 39.004206744837006 21.56887266490409 23.9891152903117 H 0.0 **** 0.06
19401 C 59.898396885660546 13.605933388006434 131.99523727423755 C 0.0 **** -0.24
19402 H 59.99607573566978 13.423139352096015 133.06456744107734 H 0.0 **** 0.06
19403 H 60.14027942126678 12.69561167980639 131.44729193581122 H 0.0 **** 0.06
19404 H 60.58266916012704 14.401870472425578 131.6980561947271 H 0.0 **** 0.06
19405 H 58.87443946542756 13.905308990432005 131.76925631530045 H 0.0 **** 0.06
19406 C 18.104087247919097 122.87206588622067 55.69762981541304 C 0.0 **** -0.24
19407 H 17.016983118195526 122.80337983036938 55.67446330250169 H 0.0 **** 0.06
19408 H 18.40134718176762 123.92071688149807 55.708424271824924 H 0.0 **** 0.06
19409 H 18.517945025129166 122.38623384081566 54.814919902813415 H 0.0 **** 0.06
19410 H 18.479982479150067 122.37821066522636 56.59409550048953 H 0.0 **** 0.06
19411 C 13.805405089216094 74.7115537058292 18.523749624043873 C 0.0 **** -0.24
19412 H 14.527556617133143 75.29280024570079 19.096904503910935 H 0.0 **** 0.06
19413 H 13.78953647690065 73.68610619022968 18.893061795473635 H 0.0 **** 0.06
19414 H 14.091457050018505 74.71340660439577 17.47107929609053 H 0.0 **** 0.06
19415 H 12.815837693113224 75.15363765529446 18.631656848172916 H 0.0 **** 0.06
19416 C 127.73935391557325 13.013937968282676 83.07284013007471 C 0.0 **** -0.24
19417 H 128.14345469596 12.049907023979273 82.76309052832279 H 0.0 **** 0.06
19418 H 127.25309800864142 13.493555095345187 82.22223412018349 H 0.0 **** 0.06
19419 H 128.54936238470924 13.647411254686062 83.4334683922533 H 0.0 **** 0.06
19420 H 127.01218116668042 12.863435480517893 83.87002683342683 H 0.0 **** 0.06
19421 C 125.90490179597447 54.027761361000216 33.69953191919735 C 0.0 **** -0.24
19422 H 126.17622992071122 53.577950950412486 34.65507447676425 H 0.0 **** 0.06
19423 H 126.07542767383416 53.307860754125144 32.89855815418032 H 0.0 **** 0.06
19424 H 126.51681337218155 54.91398265814742 33.52838877444051 H 0.0 **** 0.06
19425 H 124.85193129913995 54.31015422007674 33.71651226087281 H 0.0 **** 0.06
19426 C 107.65088493639114 25.969251246510964 90.75768120282683 C 0.0 **** -0.24
19427 H 107.07701108082769 26.56646666547232 90.0483523064614 H 0.0 **** 0.06
19428 H 108.64753697683985 26.39695531574762 90.86978324066996 H 0.0 **** 0.06
19429 H 107.73219592051952 24.94673891497652 90.38979817114875 H 0.0 **** 0.06
19430 H 107.14486800342443 25.96791227473736 91.72316914803915 H 0.0 **** 0.06
19431 C 32.793050630332715 65.12490244412312 30.091051411737567 C 0.0 **** -0.24
19432 H 32.92556004960488 65.42015617306497 31.132362329614352 H 0.0 **** 0.06
19433 H 32.06849905497438 65.7865041130071 29.61604177755646 H 0.0 **** 0.06
19434 H 32.4308748553009 64.09806153352511 30.047954783146167 H 0.0 **** 0.06
19435 H 33.74697366825761 65.19594806223279 29.56873518335658 H 0.0 **** 0.06
19436 C 51.545561326769416 67.2281862075042 70.14160891728194 C 0.0 **** -0.24
19437 H 50.74790137725357 67.90206280089527 69.829343279453 H 0.0 **** 0.06
19438 H 51.846645324797294 67.46933678061598 71.16140534484808 H 0.0 **** 0.06
19439 H 52.399510770547565 67.34299450942328 69.47404147071197 H 0.0 **** 0.06
19440 H 51.188574542334536 66.1997106370163 70.10168053134036 H 0.0 **** 0.06
19441 C 103.74372836760841 12.494132206454935 58.9833964463906 C 0.0 **** -0.24
19442 H 104.74929048317182 12.81814088503802 59.25218840452109 H 0.0 **** 0.06
19443 H 103.0758891469523 13.355828403241503 58.97061513124143 H 0.0 **** 0.06
19444 H 103.38784445838655 11.768690978663585 59.71545081324612 H 0.0 **** 0.06
19445 H 103.76188938192269 12.033868558876748 57.995331436553926 H 0.0 **** 0.06
19446 C 41.54777104176776 117.41407734435283 139.9455546956929 C 0.0 **** -0.24
19447 H 40.90642444763216 116.55459952166164 140.1407835784037 H 0.0 **** 0.06
19448 H 42.556178476461156 117.20402614375577 140.30249985807373 H 0.0 **** 0.06
19449 H 41.15283539685862 118.28688484811887 140.46442148551452 H 0.0 **** 0.06
19450 H 41.57460974075778 117.61027505355862 138.87370627437738 H 0.0 **** 0.06
19451 C 124.08297913352482 109.83968571309985 96.31097265062967 C 0.0 **** -0.24
19452 H 124.0767939300376 108.78241860464034 96.04407577164098 H 0.0 **** 0.06
19453 H 123.80491135688669 109.95121890574443 97.35901346905138 H 0.0 **** 0.06
19454 H 123.36891455000995 110.37605574409197 95.68564323394871 H 0.0 **** 0.06
19455 H 125.08146562371954 110.24686083652868 96.15407136687794 H 0.0 **** 0.06
19456 C 88.18481821255546 86.85705950003906 13.11218658815531 C 0.0 **** -0.24
19457 H 87.33312597095143 86.25318349903652 12.799317621931635 H 0.0 **** 0.06
19458 H 88.49959143175666 87.49608772944029 12.286526437210057 H 0.0 **** 0.06
19459 H 89.00844702510685 86.20370387785398 13.401009943757572 H 0.0 **** 0.06
19460 H 87.89716730069249 87.47712405162785 13.9610857519516 H 0.0 **** 0.06
19461 C 94.00368402671954 23.75889867349116 90.54863728024031 C 0.0 **** -0.24
19462 H 94.97917168651301 23.956760966654087 90.99413507219805 H 0.0 **** 0.06
19463 H 93.73775454968728 22.7141058530255 90.70890695100042 H 0.0 **** 0.06
19464 H 94.04475231020591 23.964574506572262 89.47931800380411 H 0.0 **** 0.06
19465 H 93.25547025639734 24.400481302589583 91.0148484030712 H 0.0 **** 0.06
19466 C 19.253167824048376 40.22239842498939 16.067447740090074 C 0.0 **** -0.24
19467 H 18.622883874857138 39.3661133394491 15.82942704796534 H 0.0 **** 0.06
19468 H 20.17856961280451 39.87544203472365 16.52795802255571 H 0.0 **** 0.06
19469 H 18.727258881321603 40.87982942119834 16.759231762179752 H 0.0 **** 0.06
19470 H 19.485285769049 40.76827340880152 15.152688929447493 H 0.0 **** 0.06
19471 C 1.815307022157043 76.23173218035396 80.99366853625534 C 0.0 **** -0.24
19472 H 2.1622432341739284 75.20996711679598 81.14830140424455 H 0.0 **** 0.06
19473 H 0.8876009203864896 76.21796298397325 80.42118123088066 H 0.0 **** 0.06
19474 H 2.5726221909703497 76.79224361022821 80.44502512293109 H 0.0 **** 0.06
19475 H 1.6408410809311818 76.70599833912823 81.95911564207464 H 0.0 **** 0.06
19476 C 128.8743061362259 129.8674749695928 98.77792076711235 C 0.0 **** -0.24
19477 H 128.60511092981616 129.34456947763846 97.85978857784161 H 0.0 **** 0.06
19478 H 127.96798455915594 130.1892267494872 99.29164629738642 H 0.0 **** 0.06
19479 H 129.48405836987817 130.73727663924063 98.53415827806718 H 0.0 **** 0.06
19480 H 129.4399358475547 129.19690288583197 99.4249586435422 H 0.0 **** 0.06
19481 C 10.329683154107329 104.12837622598869 80.48076654525495 C 0.0 **** -0.24
19482 H 10.82152724247328 103.36909838852498 81.0890333187877 H 0.0 **** 0.06
19483 H 9.262497178850708 104.13734082215282 80.7036267028202 H 0.0 **** 0.06
19484 H 10.479160939951498 103.90152262447558 79.42529711453125 H 0.0 **** 0.06
19485 H 10.75668197473459 105.10552512749254 80.7059529506489 H 0.0 **** 0.06
19486 C 9.347486158541273 71.21206840095648 104.4951559033596 C 0.0 **** -0.24
19487 H 9.592842782270623 71.44789210052924 103.46004181778888 H 0.0 **** 0.06
19488 H 10.16382822119732 71.53304586230526 105.14332337109009 H 0.0 **** 0.06
19489 H 9.201422661991472 70.13702533442081 104.5990488544708 H 0.0 **** 0.06
19490 H 8.432829223652249 71.73179244138183 104.77956843434649 H 0.0 **** 0.06
19491 C 70.86568841102022 15.376002955558448 88.54460135747699 C 0.0 **** -0.24
19492 H 71.38132251475744 14.761649313992905 89.2829725297143 H 0.0 **** 0.06
19493 H 71.34355653282293 16.353986691471675 88.48833625857908 H 0.0 **** 0.06
19494 H 69.82222865945224 15.496537088846395 88.83841802522848 H 0.0 **** 0.06
19495 H 70.91484281103774 14.889939229469746 87.56954297316837 H 0.0 **** 0.06
19496 C 94.09210001785797 143.94738151428464 106.9510103826878 C 0.0 **** -0.24
19497 H 94.70327172033164 144.62606860861075 107.54669814765191 H 0.0 **** 0.06
19498 H 94.46788094500255 142.92989449626882 107.06108209307229 H 0.0 **** 0.06
19499 H 94.14128274535639 144.2413773175419 105.90206402144128 H 0.0 **** 0.06
19500 H 93.05901036406125 143.99349712681496 107.29413276846122 H 0.0 **** 0.06
19501 C 125.43339155876566 59.33815327839878 143.6696852017812 C 0.0 **** -0.24
19502 H 125.69762191786623 59.54339731146277 144.70725838862333 H 0.0 **** 0.06
19503 H 125.14727176118936 60.26841678174817 143.1776006267729 H 0.0 **** 0.06
19504 H 124.59811390602398 58.63902879886439 143.6405292945222 H 0.0 **** 0.06
19505 H 126.29088050270337 58.903379382680086 143.1558639518297 H 0.0 **** 0.06
19506 C 61.97566844474318 16.955128587587247 49.45953688280571 C 0.0 **** -0.24
19507 H 61.39194481466694 16.385841690455173 48.73655692217872 H 0.0 **** 0.06
19508 H 62.81492719291805 16.350928348047326 49.80536308218123 H 0.0 **** 0.06
19509 H 61.34538302032354 17.219313532751883 50.308564259358235 H 0.0 **** 0.06
19510 H 62.35035050387688 17.863923411316698 48.98983999409981 H 0.0 **** 0.06
19511 C 24.69620908279279 69.45105002108005 142.92457972813116 C 0.0 **** -0.24
19512 H 24.66120581979993 70.49886257535059 143.22379962029228 H 0.0 **** 0.06
19513 H 25.669620435292728 69.22995945372857 142.48747886041028 H 0.0 **** 0.06
19514 H 23.914957476629837 69.25820897718278 142.1890960964404 H 0.0 **** 0.06
19515 H 24.536595225808952 68.81978056380737 143.79832119721704 H 0.0 **** 0.06
19516 C 24.330282868137715 142.81162124618228 22.27034507411844 C 0.0 **** -0.24
19517 H 24.42243299519646 143.30842321410682 21.304988654709746 H 0.0 **** 0.06
19518 H 24.83145353713681 143.40659340256838 23.034577393954123 H 0.0 **** 0.06
19519 H 24.7921905900253 141.82547512960585 22.21693144690539 H 0.0 **** 0.06
19520 H 23.275995371866657 142.70574035891678 22.5251076871711 H 0.0 **** 0.06
19521 C 85.9424869648829 48.23969210872876 92.47734919030555 C 0.0 **** -0.24
19522 H 84.94718574753446 47.84523483857522 92.27430531178928 H 0.0 **** 0.06
19523 H 86.45322555635443 47.58965838428726 93.18792019570591 H 0.0 **** 0.06
19524 H 85.85687139362435 49.24231651808746 92.89810592586164 H 0.0 **** 0.06
19525 H 86.51182996400178 48.28363191807 91.54913169421854 H 0.0 **** 0.06
19526 C 23.845880748800653 27.22288251496606 55.53771807423561 C 0.0 **** -0.24
19527 H 24.418474866002498 26.53552567046713 54.913933255790084 H 0.0 **** 0.06
19528 H 23.15854954371264 27.793320448733198 54.912973905943716 H 0.0 **** 0.06
19529 H 24.527409382130372 27.904393638279565 56.046432326898014 H 0.0 **** 0.06
19530 H 23.279850096161454 26.65619751799065 56.277736558233244 H 0.0 **** 0.06
19531 C 1.0421102798945405 112.18300003879601 89.8190343481394 C 0.0 **** -0.24
19532 H 0.6850810648621035 111.16838268820713 89.64248501426994 H 0.0 **** 0.06
19533 H 1.5583941520653575 112.22374287863157 90.77858732626434 H 0.0 **** 0.06
19534 H 0.19549499764913136 112.86940468429127 89.83234307521207 H 0.0 **** 0.06
19535 H 1.730580865765564 112.46856523232837 89.02309671822736 H 0.0 **** 0.06
19536 C 67.6167662554118 24.051195191367817 101.179578847574 C 0.0 **** -0.24
19537 H 67.51780012174842 23.91791229425045 100.10221898329443 H 0.0 **** 0.06
19538 H 68.10732483846196 23.177102546983534 101.60986979307205 H 0.0 **** 0.06
19539 H 66.62747465622977 24.16803089857438 101.62365373878981 H 0.0 **** 0.06
19540 H 68.21313266216843 24.940629283502545 101.3826083901222 H 0.0 **** 0.06
19541 C 16.856151953679884 51.07001930683832 30.13173058602308 C 0.0 **** -0.24
19542 H 17.313199262430217 51.691472755923954 29.3620187954117 H 0.0 **** 0.06
19543 H 16.871731806703004 51.600456085226426 31.084337551579495 H 0.0 **** 0.06
19544 H 17.413854930713114 50.13819700018908 30.22500154227197 H 0.0 **** 0.06
19545 H 15.824527190571878 50.850517030561846 29.855500567988997 H 0.0 **** 0.06
19546 C 84.95195025410251 60.310202560740635 114.95943573909554 C 0.0 **** -0.24
19547 H 85.67694436424031 60.7628416232196 114.28257952173269 H 0.0 **** 0.06
19548 H 84.49452425180965 61.087095589854584 115.57323263816616 H 0.0 **** 0.06
19549 H 85.45733464445877 59.58995089865388 115.60293714934099 H 0.0 **** 0.06
19550 H 84.18089739909661 59.802923886321054 114.3805379169128 H 0.0 **** 0.06
19551 C 19.79542538320979 115.46165959868897 23.923911545863348 C 0.0 **** -0.24
19552 H 19.76003951902962 114.47544643153542 24.386207234155393 H 0.0 **** 0.06
19553 H 19.1014007240976 116.12764253443702 24.43615990008206 H 0.0 **** 0.06
19554 H 19.513205224251664 115.38077763493429 22.873411256565106 H 0.0 **** 0.06
19555 H 20.80571564251531 115.86228957150023 23.99846390424247 H 0.0 **** 0.06
19556 C 100.0218627019312 12.131843406896138 117.35921911664727 C 0.0 **** -0.24
19557 H 99.36848672702243 12.35295746078188 118.20321515207596 H 0.0 **** 0.06
19558 H 100.87549477990119 11.548441920204311 117.70451302719246 H 0.0 **** 0.06
19559 H 100.37258827133226 13.0642671369082 116.91757057794595 H 0.0 **** 0.06
19560 H 99.46906904814372 11.561467273262366 116.61286589436699 H 0.0 **** 0.06
19561 C 135.4621563901114 16.119893406620378 11.810987448372089 C 0.0 **** -0.24
19562 H 135.64643665442495 15.357067285959225 11.05374967769965 H 0.0 **** 0.06
19563 H 135.85335067680765 15.780924481163694 12.770304392492292 H 0.0 **** 0.06
19564 H 134.38997607951163 16.29520219570901 11.896410422736786 H 0.0 **** 0.06
19565 H 135.96015615650236 17.04581034144988 11.522070523771674 H 0.0 **** 0.06
19566 C 108.59208313946098 14.765966067897423 94.36236280619126 C 0.0 **** -0.24
19567 H 109.2380029409641 15.64131086249887 94.29277110450379 H 0.0 **** 0.06
19568 H 108.85980725355776 14.055181813164538 93.58046291159303 H 0.0 **** 0.06
19569 H 107.5539420350888 15.07041092539911 94.23734207552474 H 0.0 **** 0.06
19570 H 108.71926432773981 14.297845001698846 95.33875490634621 H 0.0 **** 0.06
19571 C 35.80677184033213 30.391208548378756 113.01600379428523 C 0.0 **** -0.24
19572 H 34.76793478496014 30.183032372451095 113.27287178761053 H 0.0 **** 0.06
19573 H 36.41626821107987 29.512386142138112 113.23152025094596 H 0.0 **** 0.06
19574 H 36.16444916345657 31.235315358415164 113.60629571932974 H 0.0 **** 0.06
19575 H 35.87765934694576 30.63232419127243 111.95601886768007 H 0.0 **** 0.06
19576 C 45.03735601451034 18.977950616953933 79.39538501866707 C 0.0 **** -0.24
19577 H 43.95213302421563 18.91830124982215 79.30942028762345 H 0.0 **** 0.06
19578 H 45.40426697105249 19.800727608665852 78.78278383168563 H 0.0 **** 0.06
19579 H 45.48055453294569 18.042407666238773 79.05332160061515 H 0.0 **** 0.06
19580 H 45.30895137759538 19.149486685278532 80.43693637541742 H 0.0 **** 0.06
19581 C 39.688278243010274 35.87033521722199 76.99054063777945 C 0.0 **** -0.24
19582 H 39.44536946281742 34.81155129224567 77.07488978851316 H 0.0 **** 0.06
19583 H 40.51961061758366 35.99903610113901 76.29704263175134 H 0.0 **** 0.06
19584 H 39.969468872069505 36.25802999650057 77.97028220351498 H 0.0 **** 0.06
19585 H 38.81847357282953 36.414895160844736 76.62044566866297 H 0.0 **** 0.06
19586 C 73.11762492352372 132.33905583445696 91.36697743460367 C 0.0 **** -0.24
19587 H 72.44832612619554 132.38652860905344 92.22573836394022 H 0.0 **** 0.06
19588 H 72.73570969819343 131.6151647791086 90.64723623914156 H 0.0 **** 0.06
19589 H 74.11045097424821 132.03457632356063 91.6976684418302 H 0.0 **** 0.06
19590 H 73.17640235863212 133.32198968268725 90.89810515068162 H 0.0 **** 0.06
19591 C 91.30009232122008 62.41347273155611 140.44654453080742 C 0.0 **** -0.24
19592 H 91.97562846292887 62.78756920929686 139.67742059284961 H 0.0 **** 0.06
19593 H 90.89345844097743 61.450394068481046 140.13678445580214 H 0.0 **** 0.06
19594 H 90.48515395086903 63.12288373275567 140.589552813316 H 0.0 **** 0.06
19595 H 91.84617973238015 62.29441360735555 141.3820718359703 H 0.0 **** 0.06
19596 C 47.72383496822408 0.2670717643989633 120.81668813924362 C 0.0 **** -0.24
19597 H 46.886573264157434 0.9648154228609656 120.78984520720614 H 0.0 **** 0.06
19598 H 48.45389566600605 0.5463554805180877 120.05756374693344 H 0.0 **** 0.06
19599 H 47.36131333558818 -0.7425181268139056 120.61949717010627 H 0.0 **** 0.06
19600 H 48.191527731911464 0.2993440169140058 121.80073838098399 H 0.0 **** 0.06
19601 C 60.97044779203564 59.28724842549434 141.67455984140523 C 0.0 **** -0.24
19602 H 60.23610874636661 59.974173668855514 141.25371452768752 H 0.0 **** 0.06
19603 H 61.63969448810796 59.834524860184274 142.33793246101786 H 0.0 **** 0.06
19604 H 61.54770500836865 58.8347349167812 140.86766668283016 H 0.0 **** 0.06
19605 H 60.457421677188265 58.5067439741934 142.23650548484747 H 0.0 **** 0.06
19606 C 124.98853536567597 56.54070261696339 45.45577159501417 C 0.0 **** -0.24
19607 H 125.29762501242467 57.54617307078463 45.74049361752864 H 0.0 **** 0.06
19608 H 124.50822347428807 56.05364864014027 46.30469257383672 H 0.0 **** 0.06
19609 H 125.86391061519478 55.96483481162534 45.15322176731249 H 0.0 **** 0.06
19610 H 124.286546776016 56.597655834578816 44.62364524445542 H 0.0 **** 0.06
19611 C 132.26494484939005 103.90079468472578 106.16772915517036 C 0.0 **** -0.24
19612 H 131.7447983842783 104.7255303895289 105.68080456462023 H 0.0 **** 0.06
19613 H 132.67864592438397 103.23476924699258 105.41013991389714 H 0.0 **** 0.06
19614 H 131.56298466951708 103.34863324694541 106.79280559832058 H 0.0 **** 0.06
19615 H 133.07137201570816 104.29378023756146 106.78623416124351 H 0.0 **** 0.06
19616 C 139.19918126877462 0.2638442522081341 99.07300876740061 C 0.0 **** -0.24
19617 H 139.2907616300247 -0.5431822913498259 98.34619511547731 H 0.0 **** 0.06
19618 H 138.27907381620196 0.8186482791879719 98.88663358354785 H 0.0 **** 0.06
19619 H 140.05311515190536 0.9351668627232463 98.98057616389741 H 0.0 **** 0.06
19620 H 139.17395031927714 -0.15452862143697033 100.07929373799863 H 0.0 **** 0.06
19621 C 30.394374793530353 87.02138829084467 124.80283378491802 C 0.0 **** -0.24
19622 H 31.371876486833514 87.38379413213184 125.11936229187515 H 0.0 **** 0.06
19623 H 29.789088717953476 87.85994006206445 124.45833328375922 H 0.0 **** 0.06
19624 H 29.897400695799597 86.53541323853577 125.64330445912319 H 0.0 **** 0.06
19625 H 30.518685331668458 86.30474683393012 123.99055314347922 H 0.0 **** 0.06
19626 C 97.37588792974455 96.715924234849 99.19917606979185 C 0.0 **** -0.24
19627 H 96.42589912760161 97.00281376870826 98.74748967606554 H 0.0 **** 0.06
19628 H 97.23183766120795 95.82867197042528 99.81506144873357 H 0.0 **** 0.06
19629 H 97.74421850306109 97.5329188716315 99.81848309131682 H 0.0 **** 0.06
19630 H 98.10003747304583 96.49928775628692 98.4137806442468 H 0.0 **** 0.06
19631 C 121.63783296243355 37.16912335811014 70.59091563186465 C 0.0 **** -0.24
19632 H 120.72343795822536 36.66250900797996 70.28039088087885 H 0.0 **** 0.06
19633 H 121.8918117084931 37.93959162753828 69.8632059915042 H 0.0 **** 0.06
19634 H 122.45086218253294 36.44403467311045 70.65223356246557 H 0.0 **** 0.06
19635 H 121.48552894049004 37.627013883404345 71.56868129008532 H 0.0 **** 0.06
19636 C 143.63947588789225 49.93165011585762 48.0355869523292 C 0.0 **** -0.24
19637 H 144.087244398922 49.37074178375663 47.215165045929666 H 0.0 **** 0.06
19638 H 143.00610277297164 50.72189645419073 47.63147167678272 H 0.0 **** 0.06
19639 H 144.42682150266427 50.372089950161055 48.646832816385995 H 0.0 **** 0.06
19640 H 143.03715517532368 49.260843269331716 48.64761129599964 H 0.0 **** 0.06
19641 C 137.105087306784 55.21722383505015 47.92273142425972 C 0.0 **** -0.24
19642 H 137.3494518611579 54.6089096717175 47.05242762685543 H 0.0 **** 0.06
19643 H 136.26917382738475 55.87407454521167 47.684203329157555 H 0.0 **** 0.06
19644 H 137.97155061182792 55.81762686016769 48.20057753212052 H 0.0 **** 0.06
19645 H 136.8320136668454 54.56753277788049 48.753934281806664 H 0.0 **** 0.06
19646 C 132.889271728598 117.3166197966806 44.45615027818931 C 0.0 **** -0.24
19647 H 132.4677692636242 116.6218881747135 45.18290853165914 H 0.0 **** 0.06
19648 H 132.16780894384382 117.48763267050815 43.6571121385596 H 0.0 **** 0.06
19649 H 133.80253872837304 116.89440560295348 44.03786876738869 H 0.0 **** 0.06
19650 H 133.11819656639088 118.26272967434299 44.948251369405455 H 0.0 **** 0.06
19651 C 142.95052306452223 41.366103800004325 129.9043572365018 C 0.0 **** -0.24
19652 H 143.46698890975853 42.15571812788009 130.44872941925664 H 0.0 **** 0.06
19653 H 142.79702361477467 40.51128288827663 130.56330491369917 H 0.0 **** 0.06
19654 H 143.55265837714444 41.0611121772395 129.04840450541423 H 0.0 **** 0.06
19655 H 141.98564475345486 41.734916004921615 129.55716093039112 H 0.0 **** 0.06
19656 C 86.46746744186011 143.91610683132492 121.91567292925025 C 0.0 **** -0.24
19657 H 86.90512280456646 144.73934700375764 122.48011893028287 H 0.0 **** 0.06
19658 H 85.83143260455854 144.31486684883225 121.12544762822127 H 0.0 **** 0.06
19659 H 85.8724716912733 143.29405011577606 122.58417602253932 H 0.0 **** 0.06
19660 H 87.26323184692453 143.31562411135684 121.47298513303043 H 0.0 **** 0.06
19661 C 23.368568602612925 15.944842944679323 62.06149495547089 C 0.0 **** -0.24
19662 H 23.757562226219278 15.675690269023107 63.043781430053045 H 0.0 **** 0.06
19663 H 23.760734442098396 16.91919680426298 61.76997067006681 H 0.0 **** 0.06
19664 H 22.27975135308708 15.98809330231407 62.102279043287936 H 0.0 **** 0.06
19665 H 23.676141658114233 15.19564400088069 61.3322798740181 H 0.0 **** 0.06
19666 C 127.16210864477375 23.452981285419156 46.78825277637529 C 0.0 **** -0.24
19667 H 126.66930707993964 23.015879712619437 45.920666086567024 H 0.0 **** 0.06
19668 H 126.41248737824368 23.731933737206106 47.52885684663366 H 0.0 **** 0.06
19669 H 127.7188025730351 24.338982542452783 46.482046042381626 H 0.0 **** 0.06
19670 H 127.84870647443856 22.72470813694028 47.221702435167316 H 0.0 **** 0.06
19671 C 125.47631497278803 100.15471658032283 118.50448990064267 C 0.0 **** -0.24
19672 H 125.18411254568724 100.9610026100728 119.17804058322623 H 0.0 **** 0.06
19673 H 126.02712039919075 99.39695290262478 119.06299822602948 H 0.0 **** 0.06
19674 H 126.10882426257675 100.55422696363314 117.71300947656597 H 0.0 **** 0.06
19675 H 124.58452199127672 99.706328988932 118.0671379582739 H 0.0 **** 0.06
19676 C 83.09130939547185 88.0012056922105 21.820681590825977 C 0.0 **** -0.24
19677 H 82.98549397626903 88.1643513936297 20.74843467502086 H 0.0 **** 0.06
19678 H 82.44512195239435 87.18031229630961 22.12854785165637 H 0.0 **** 0.06
19679 H 82.80722665526463 88.90787797808035 22.354972957524232 H 0.0 **** 0.06
19680 H 84.12880618459099 87.75427344828636 22.049027463772944 H 0.0 **** 0.06
19681 C 129.36784175837766 74.96218759054831 34.611615522910085 C 0.0 **** -0.24
19682 H 129.70979257664732 75.85424985112343 34.08665793835348 H 0.0 **** 0.06
19683 H 129.45896793666898 74.0971304492817 33.95321583697444 H 0.0 **** 0.06
19684 H 128.32562206707152 75.08909735817494 34.904130331438864 H 0.0 **** 0.06
19685 H 129.97975728694135 74.80803763928103 35.500955795073594 H 0.0 **** 0.06
19686 C 21.10914984452529 25.6611158164213 133.21697270608547 C 0.0 **** -0.24
19687 H 22.154060140387287 25.923949737014567 133.3858328799892 H 0.0 **** 0.06
19688 H 20.476743135554045 26.515855819752247 133.45492886932198 H 0.0 **** 0.06
19689 H 20.839439149950294 24.8195169449246 133.85534673193132 H 0.0 **** 0.06
19690 H 20.969297476506995 25.383999957215863 132.17155362149902 H 0.0 **** 0.06
19691 C 110.50987628754514 4.561602506649763 0.019912400611900694 C 0.0 **** -0.24
19692 H 111.38034036324116 4.324930143698111 0.6314918039670943 H 0.0 **** 0.06
19693 H 109.6079479920622 4.200050142204589 0.5147923634440303 H 0.0 **** 0.06
19694 H 110.60847971581363 4.081118494290251 -0.9534433258013166 H 0.0 **** 0.06
19695 H 110.44274940326217 5.6419834708857195 -0.11364250898142814 H 0.0 **** 0.06
19696 C 91.24278913618083 67.07383088389537 88.50811034454284 C 0.0 **** -0.24
19697 H 91.81106267879031 68.00385094866895 88.514874090174 H 0.0 **** 0.06
19698 H 91.00476270445999 66.78647314462526 89.53273607474964 H 0.0 **** 0.06
19699 H 91.83438850000834 66.28877885161121 88.0387742933604 H 0.0 **** 0.06
19700 H 90.3188772278826 67.2168732329304 87.94720073119066 H 0.0 **** 0.06
19701 C 11.707074514566813 127.34680108034263 72.32216255997352 C 0.0 **** -0.24
19702 H 12.579380902261732 127.50379874160745 72.9560009956187 H 0.0 **** 0.06
19703 H 11.0186838806965 126.66007701875276 72.81685073039776 H 0.0 **** 0.06
19704 H 12.022533353908642 126.92150941003632 71.36916537550056 H 0.0 **** 0.06
19705 H 11.207834583115215 128.29976533552747 72.14750716740681 H 0.0 **** 0.06
19706 C 100.7008725006933 120.12331670655107 62.4260556229827 C 0.0 **** -0.24
19707 H 100.56809016937137 121.19701947996577 62.29052283948282 H 0.0 **** 0.06
19708 H 100.46651899829513 119.85562410015274 63.45672144350935 H 0.0 **** 0.06
19709 H 101.73471464589275 119.85545674295918 62.206420957245925 H 0.0 **** 0.06
19710 H 100.03500791180343 119.58745964937992 61.75037491838911 H 0.0 **** 0.06
19711 C 9.312530835963173 114.33922857746468 106.35887944660658 C 0.0 **** -0.24
19712 H 9.64587146611808 115.27534268099596 106.80687420870316 H 0.0 **** 0.06
19713 H 10.072438629990756 113.57296196315328 106.51446077123074 H 0.0 **** 0.06
19714 H 9.15451051035376 114.48395791935694 105.29042080664249 H 0.0 **** 0.06
19715 H 8.378873854298547 114.02558073921752 106.82505381343043 H 0.0 **** 0.06
19716 C 125.95329236449243 2.4590011362758304 29.134036386660654 C 0.0 **** -0.24
19717 H 125.25063464469875 1.633030388314129 29.2520805598905 H 0.0 **** 0.06
19718 H 125.95494092791222 3.06677916543401 30.03902757954303 H 0.0 **** 0.06
19719 H 125.65258435625236 3.0724687414610834 28.28404277608155 H 0.0 **** 0.06
19720 H 126.9531658202257 2.062256931335199 28.959139305368126 H 0.0 **** 0.06
19721 C 46.807724207907796 11.318022142474746 70.38953435425864 C 0.0 **** -0.24
19722 H 47.275436962374926 10.599788509009677 71.06321910202408 H 0.0 **** 0.06
19723 H 47.14745100724029 11.134107082332363 69.36918640036012 H 0.0 **** 0.06
19724 H 47.08421265391782 12.329353192346836 70.68748156288527 H 0.0 **** 0.06
19725 H 45.72444192238822 11.20885750506941 70.43748694965629 H 0.0 **** 0.06
19726 C 137.07978449668659 78.38412600461452 100.4248059411446 C 0.0 **** -0.24
19727 H 137.36270265689325 79.34608940963395 99.99733006975995 H 0.0 **** 0.06
19728 H 136.08544325804158 78.10790231588027 100.07330787352547 H 0.0 **** 0.06
19729 H 137.0723494083864 78.45845473668413 101.51278613717542 H 0.0 **** 0.06
19730 H 137.79792465551407 77.62382860495731 100.11735922795694 H 0.0 **** 0.06
19731 C 112.53499243899181 44.82656068796315 68.43988894144466 C 0.0 **** -0.24
19732 H 111.96377487686634 45.17461950340494 67.57991952036501 H 0.0 **** 0.06
19733 H 111.87331104173815 44.727481817627094 69.30035451290948 H 0.0 **** 0.06
19734 H 113.32260932004463 45.54565971202544 68.66806036824036 H 0.0 **** 0.06
19735 H 112.98196408798948 43.858653667946086 68.21156182789147 H 0.0 **** 0.06
19736 C 2.5026940887216256 50.137015761274725 4.042580517181307 C 0.0 **** -0.24
19737 H 3.005945690585719 50.31526306891968 3.092563888101324 H 0.0 **** 0.06
19738 H 2.3863430355148694 49.063573723684954 4.195739166652203 H 0.0 **** 0.06
19739 H 1.521186069847687 50.610565100494014 4.028092033300624 H 0.0 **** 0.06
19740 H 3.0970680202521237 50.55701548847287 4.853439761744397 H 0.0 **** 0.06
19741 C 62.781546366102646 99.2139846193766 78.01234714786625 C 0.0 **** -0.24
19742 H 62.15244579634549 98.3254973429251 78.04867425906508 H 0.0 **** 0.06
19743 H 62.53996307756398 99.86461520048628 78.85250560546234 H 0.0 **** 0.06
19744 H 62.60366781308397 99.74647561674729 77.07744527936484 H 0.0 **** 0.06
19745 H 63.82917166559389 98.91970975663791 78.0685289706945 H 0.0 **** 0.06
19746 C 35.500070545002046 82.91159551241697 124.80246283814046 C 0.0 **** -0.24
19747 H 35.85230036333016 81.88397717626071 124.71655836805496 H 0.0 **** 0.06
19748 H 35.0194314048596 83.0520117191844 125.77046396787824 H 0.0 **** 0.06
19749 H 34.78306334613305 83.11730591372475 124.00720952228471 H 0.0 **** 0.06
19750 H 36.345968469770185 83.59358377313993 124.71349301277729 H 0.0 **** 0.06
19751 C 59.47954327049629 52.94847551351424 132.75277313362898 C 0.0 **** -0.24
19752 H 58.916099341616814 53.03122224973242 131.82341162707237 H 0.0 **** 0.06
19753 H 58.93666887363085 52.31128324621007 133.4503218882908 H 0.0 **** 0.06
19754 H 59.60814813988142 53.93909669673242 133.18891915841934 H 0.0 **** 0.06
19755 H 60.45713755730762 52.512194243558454 132.54599549873356 H 0.0 **** 0.06
19756 C 71.03084463475969 26.58757959928812 132.7281518924615 C 0.0 **** -0.24
19757 H 71.95020472692936 26.209007483130108 133.17398373904243 H 0.0 **** 0.06
19758 H 71.08677294193399 27.673577894251423 132.64801662625817 H 0.0 **** 0.06
19759 H 70.18294057101862 26.311834454354027 133.3556877397792 H 0.0 **** 0.06
19760 H 70.90363919149567 26.155663584931574 131.7363025298648 H 0.0 **** 0.06
19761 C 46.42948501459543 51.26444043326036 128.94407259988472 C 0.0 **** -0.24
19762 H 45.87829450629495 50.799189953818896 129.7608956429559 H 0.0 **** 0.06
19763 H 47.440395402361034 51.50172790821017 129.2769280931993 H 0.0 **** 0.06
19764 H 45.92293561916321 52.179772742056215 128.63865427435783 H 0.0 **** 0.06
19765 H 46.47735113358232 50.57611240735676 128.09989235425357 H 0.0 **** 0.06
19766 C 96.30073019156322 86.7865075516062 29.808522646398515 C 0.0 **** -0.24
19767 H 96.32160512997598 87.8608940788856 29.991519173527138 H 0.0 **** 0.06
19768 H 96.34679527799551 86.25425012592287 30.759624123918172 H 0.0 **** 0.06
19769 H 97.15587048818634 86.50613019502462 29.193327134471886 H 0.0 **** 0.06
19770 H 95.37784431071236 86.52425639162104 29.289939061892113 H 0.0 **** 0.06
19771 C 74.47238457537162 93.58150057100299 89.9308491291323 C 0.0 **** -0.24
19772 H 74.66523921288905 93.87200653235149 88.89772217268865 H 0.0 **** 0.06
19773 H 74.72915450232188 92.53065612099994 90.06628938327117 H 0.0 **** 0.06
19774 H 73.4165117732457 93.73024689685131 90.1577853971911 H 0.0 **** 0.06
19775 H 75.0781862302847 94.1942975243358 90.5987100166218 H 0.0 **** 0.06
19776 C 124.0625864588086 20.742944774969793 31.95469178764182 C 0.0 **** -0.24
19777 H 124.29350533836777 20.321363654553956 30.97625336892662 H 0.0 **** 0.06
19778 H 124.85012236374686 21.439158728739187 32.24504377184354 H 0.0 **** 0.06
19779 H 123.99747474036005 19.9408344277197 32.68976140654269 H 0.0 **** 0.06
19780 H 123.11037954063443 21.269664623579274 31.90807629699009 H 0.0 **** 0.06
19781 C 95.51863949189256 131.8684639094576 12.854186821362987 C 0.0 **** -0.24
19782 H 96.47726488335377 131.85445798193138 13.373347793314451 H 0.0 **** 0.06
19783 H 94.87943710549902 132.63406998415633 13.293417426552253 H 0.0 **** 0.06
19784 H 95.03966256450732 130.8940362850543 12.953226368890284 H 0.0 **** 0.06
19785 H 95.67903335616579 132.08899585391407 11.799588652455611 H 0.0 **** 0.06
19786 C 51.41230172813313 12.929007346682106 43.25318863950943 C 0.0 **** -0.24
19787 H 52.49903244109579 13.017070882386257 43.27321644340404 H 0.0 **** 0.06
19788 H 50.984805721366754 13.523423907548633 44.06033236234515 H 0.0 **** 0.06
19789 H 51.13115434363331 11.883857525810157 43.38090268986434 H 0.0 **** 0.06
19790 H 51.03741462415174 13.291380061061147 42.295533373279596 H 0.0 **** 0.06
19791 C 85.89918920274476 46.38004136692129 36.371330882197526 C 0.0 **** -0.24
19792 H 86.72469335721463 47.07303420048527 36.53398610717849 H 0.0 **** 0.06
19793 H 85.00533397526301 46.756270998099666 36.86923349093692 H 0.0 **** 0.06
19794 H 86.15981766382674 45.403967692875625 36.77988792974352 H 0.0 **** 0.06
19795 H 85.70921611928553 46.287718840456506 35.302303920046825 H 0.0 **** 0.06
19796 C 68.41125038346343 28.042341358524226 100.97032933918338 C 0.0 **** -0.24
19797 H 69.18623514264453 28.801976338755168 100.87105099267882 H 0.0 **** 0.06
19798 H 67.93688519636072 28.133350102804243 101.94730884801616 H 0.0 **** 0.06
19799 H 68.85894346483633 27.053053972414943 100.87479256474623 H 0.0 **** 0.06
19800 H 67.66407229480836 28.179871288183726 100.18885233396382 H 0.0 **** 0.06
19801 C 74.17823341615441 82.5200709227204 6.314843066935424 C 0.0 **** -0.24
19802 H 73.44692555912296 82.06059498326381 6.981385389449173 H 0.0 **** 0.06
19803 H 74.51638510055129 81.78468612385873 5.584689973884679 H 0.0 **** 0.06
19804 H 75.02866623141786 82.87206914381927 6.897776275071635 H 0.0 **** 0.06
19805 H 73.71822225617122 83.36239216449333 5.798016635601613 H 0.0 **** 0.06
19806 C 133.52032147594807 123.61816657622731 129.9501149942276 C 0.0 **** -0.24
19807 H 132.68730400027786 124.14965874508732 129.4897294305841 H 0.0 **** 0.06
19808 H 134.4530013894511 123.93069395555287 129.47975795637504 H 0.0 **** 0.06
19809 H 133.3860898852337 122.54551355632223 129.8141178196614 H 0.0 **** 0.06
19810 H 133.55525446654653 123.84915430634938 131.01433969301982 H 0.0 **** 0.06
19811 C 101.57694320411883 123.6738235657931 68.96210942538816 C 0.0 **** -0.24
19812 H 102.22913850163476 124.38499551714602 69.46953101313122 H 0.0 **** 0.06
19813 H 101.62840569580307 122.70914930174251 69.46753211841052 H 0.0 **** 0.06
19814 H 101.89839440038524 123.56001390690244 67.92764806228347 H 0.0 **** 0.06
19815 H 100.55151092507998 124.04213137535396 68.98543060946356 H 0.0 **** 0.06
19816 C 102.9977647352184 121.46435953142881 123.08033607779707 C 0.0 **** -0.24
19817 H 103.14264671148894 122.45532546785924 122.6509078624997 H 0.0 **** 0.06
19818 H 103.62036711455748 120.74382974258836 122.54866319253135 H 0.0 **** 0.06
19819 H 101.95031711012447 121.17853250262564 122.9860691034922 H 0.0 **** 0.06
19820 H 103.27749323717971 121.4797878734208 124.13326617338032 H 0.0 **** 0.06
19821 C 64.53058043793189 52.51528470157464 144.3025643589252 C 0.0 **** -0.24
19822 H 64.87650489295208 52.026789455792624 145.21283822415953 H 0.0 **** 0.06
19823 H 65.2648006829987 52.36875243161606 143.5097454223695 H 0.0 **** 0.06
19824 H 64.40451977300572 53.58269158257377 144.48811549581484 H 0.0 **** 0.06
19825 H 63.576903036777225 52.08388354395251 143.99862135901046 H 0.0 **** 0.06
19826 C 130.15517238315243 120.50078637053291 119.39864213037617 C 0.0 **** -0.24
19827 H 129.23116882997078 120.22061269049927 118.89222918945279 H 0.0 **** 0.06
19828 H 130.66612566744297 119.60252555543515 119.74540595436002 H 0.0 **** 0.06
19829 H 129.9230189301394 121.13927747210043 120.25048351495172 H 0.0 **** 0.06
19830 H 130.8002511262935 121.04092856140566 118.70505524906491 H 0.0 **** 0.06
19831 C 53.08315337125842 129.33026815311817 46.2256993150302 C 0.0 **** -0.24
19832 H 53.49628693685767 130.11334491605646 45.58987045475055 H 0.0 **** 0.06
19833 H 53.09363507084984 129.6623307798358 47.26330106612343 H 0.0 **** 0.06
19834 H 53.68523232215867 128.42662359321076 46.12581746480957 H 0.0 **** 0.06
19835 H 52.05868147867082 129.11914954069752 45.9210944618215 H 0.0 **** 0.06
19836 C 135.542119333293 117.22368258505193 78.89454589421007 C 0.0 **** -0.24
19837 H 134.99538555269706 116.46516866933794 79.4547607719374 H 0.0 **** 0.06
19838 H 136.17314171330855 116.7393741817207 78.14872013573006 H 0.0 **** 0.06
19839 H 136.16527478149774 117.80073551294416 79.5780845699503 H 0.0 **** 0.06
19840 H 134.83581228537352 117.88841029366759 78.39789179616042 H 0.0 **** 0.06
19841 C 51.46263478718777 13.610638003773914 39.13313967176265 C 0.0 **** -0.24
19842 H 50.68181883398023 13.837858569467016 38.40666517094178 H 0.0 **** 0.06
19843 H 52.353144650299555 14.196186812984536 38.90422553986926 H 0.0 **** 0.06
19844 H 51.70260780898519 12.548927770200635 39.08759659110052 H 0.0 **** 0.06
19845 H 51.11034313291094 13.861584804939724 40.13377556998438 H 0.0 **** 0.06
19846 C 104.60438513154057 46.47701991790393 92.14943657635908 C 0.0 **** -0.24
19847 H 104.50014095621043 45.67071676349167 92.8752404462602 H 0.0 **** 0.06
19848 H 105.64493428398912 46.54816582894915 91.83361448580219 H 0.0 **** 0.06
19849 H 104.29739621373017 47.41776823431445 92.60580953869902 H 0.0 **** 0.06
19850 H 103.97402057553356 46.269923996981674 91.28436101642275 H 0.0 **** 0.06
19851 C 109.22075790307876 94.27211043524511 16.64433626706682 C 0.0 **** -0.24
19852 H 110.17508224958702 94.72767885451407 16.906670613902605 H 0.0 **** 0.06
19853 H 108.5483287653113 94.3179901626105 17.501558551612618 H 0.0 **** 0.06
19854 H 109.38043506942584 93.23097787310763 16.36267669082858 H 0.0 **** 0.06
19855 H 108.7791855279908 94.81179485074824 15.80643921192356 H 0.0 **** 0.06
19856 C 87.42832735729702 41.44933848720726 96.41679083935816 C 0.0 **** -0.24
19857 H 87.1794050917677 41.23429930714184 97.45604141523216 H 0.0 **** 0.06
19858 H 87.87392208036185 42.44179579234344 96.34708611194213 H 0.0 **** 0.06
19859 H 86.52208786649139 41.41346330727612 95.81215801297031 H 0.0 **** 0.06
19860 H 88.13755721566459 40.70558499203806 96.05187756634916 H 0.0 **** 0.06
19861 C 5.183742220141539 44.75400760119376 66.12389931960963 C 0.0 **** -0.24
19862 H 6.0516398975578625 44.154802201333894 66.39984210606166 H 0.0 **** 0.06
19863 H 4.756568509533338 44.36786924857341 65.19805391178825 H 0.0 **** 0.06
19864 H 5.489512190363399 45.7896111640228 65.97993814113063 H 0.0 **** 0.06
19865 H 4.438715814509948 44.701154725987436 66.9181134898032 H 0.0 **** 0.06
19866 C 57.85593556269666 2.9709213625693565 65.52821767591038 C 0.0 **** -0.24
19867 H 58.53668088212552 2.9565817318655547 64.67703433324843 H 0.0 **** 0.06
19868 H 57.74204345701551 1.9593503389909586 65.91848882381478 H 0.0 **** 0.06
19869 H 56.88447946388456 3.3498571659050924 65.20903175931267 H 0.0 **** 0.06
19870 H 58.26113072141817 3.618247309362374 66.30596499894799 H 0.0 **** 0.06
19871 C 135.27335141421878 38.57830781555117 111.64454840918799 C 0.0 **** -0.24
19872 H 135.37123700594282 39.66305700528096 111.66687427174432 H 0.0 **** 0.06
19873 H 135.10088881268445 38.24994914475809 110.61861311964535 H 0.0 **** 0.06
19874 H 134.4321442429977 38.27626800125549 112.26957273167861 H 0.0 **** 0.06
19875 H 136.1892687629871 38.12299736671537 112.02210334631914 H 0.0 **** 0.06
19876 C 10.404454837492331 12.99177656888807 114.16689755861444 C 0.0 **** -0.24
19877 H 10.747734416694279 13.704048201032492 113.415995308444 H 0.0 **** 0.06
19878 H 9.890814172712204 13.52590315245854 114.96600577325222 H 0.0 **** 0.06
19879 H 11.260408000221759 12.45719242939444 114.57797157572122 H 0.0 **** 0.06
19880 H 9.719229989968582 12.280309993335663 113.70466041982041 H 0.0 **** 0.06
19881 C 100.86408535644738 84.34720917904642 107.20096810348387 C 0.0 **** -0.24
19882 H 99.90297417254678 84.20744183628335 107.69567132165604 H 0.0 **** 0.06
19883 H 101.61383519135447 84.63871864036244 107.93698939884429 H 0.0 **** 0.06
19884 H 100.77331388760645 85.12755003480675 106.44548972676817 H 0.0 **** 0.06
19885 H 101.16608011387152 83.41394963231687 106.72494950046296 H 0.0 **** 0.06
19886 C 61.421968817507405 143.5992651457291 82.7189031858909 C 0.0 **** -0.24
19887 H 62.47007685087948 143.66096984934714 83.01254922554463 H 0.0 **** 0.06
19888 H 61.27420584392391 142.72540923664718 82.08372456101525 H 0.0 **** 0.06
19889 H 61.146334150586625 144.49933775787636 82.16908800534208 H 0.0 **** 0.06
19890 H 60.799556513494764 143.51175424855904 83.60950897346454 H 0.0 **** 0.06
19891 C 73.05997019926563 63.52599333650255 69.02315059626204 C 0.0 **** -0.24
19892 H 72.09639578252103 64.01275383036108 68.87581961365976 H 0.0 **** 0.06
19893 H 72.97977479390042 62.47297124341816 68.75191066951533 H 0.0 **** 0.06
19894 H 73.3540957706309 63.61105345734225 70.06938901640598 H 0.0 **** 0.06
19895 H 73.8096532038478 64.00678779805006 68.39457046335741 H 0.0 **** 0.06
19896 C 47.734890411014476 103.86435950811716 90.57741374818463 C 0.0 **** -0.24
19897 H 48.54321772474219 104.36239715958926 91.11356893348866 H 0.0 **** 0.06
19898 H 48.02965703639103 103.71080558125907 89.53914993774677 H 0.0 **** 0.06
19899 H 46.83862510691563 104.48361794342844 90.61398411483961 H 0.0 **** 0.06
19900 H 47.52980381921054 102.90095569013577 91.0443125317909 H 0.0 **** 0.06
19901 C 50.270126683256635 89.44364352005171 80.00462833132809 C 0.0 **** -0.24
19902 H 51.047146857407725 88.78544653013729 79.61729227534596 H 0.0 **** 0.06
19903 H 49.35954610349067 89.31477498322133 79.41919018613731 H 0.0 **** 0.06
19904 H 50.60297844439155 90.47918928823995 79.93676414218686 H 0.0 **** 0.06
19905 H 50.069841787970574 89.19423120491737 81.04730249654642 H 0.0 **** 0.06
19906 C 124.21797372666705 98.53045504250419 125.81910848753876 C 0.0 **** -0.24
19907 H 123.19369754827275 98.5921449933999 126.18757366020768 H 0.0 **** 0.06
19908 H 124.28986042564932 97.73274772325618 125.0795435834138 H 0.0 **** 0.06
19909 H 124.8905430723099 98.31846346036319 126.64996101304547 H 0.0 **** 0.06
19910 H 124.49577965400252 99.47910046425541 125.35862214376951 H 0.0 **** 0.06
19911 C 10.989018626203446 111.1525149539376 54.628891990818374 C 0.0 **** -0.24
19912 H 11.356901744703336 111.6697784870013 55.51522057622729 H 0.0 **** 0.06
19913 H 10.26684332063941 111.78622380479727 54.113334183501124 H 0.0 **** 0.06
19914 H 10.508885883158634 110.22064656371121 54.926212884779446 H 0.0 **** 0.06
19915 H 11.823328620742998 110.9349274298256 53.962720571848934 H 0.0 **** 0.06
19916 C 62.28141721827572 113.34156600237567 31.286585438303263 C 0.0 **** -0.24
19917 H 62.1651061912942 112.92397831125943 32.28663501581701 H 0.0 **** 0.06
19918 H 62.12379925106494 114.41891079005528 31.32299458816263 H 0.0 **** 0.06
19919 H 61.54959518739081 112.88846986072112 30.61716902365592 H 0.0 **** 0.06
19920 H 63.28667703536594 113.13167852896525 30.92013369612718 H 0.0 **** 0.06
19921 C 117.61285705662165 52.07131583466827 113.40058158644267 C 0.0 **** -0.24
19922 H 118.34273685559167 52.34047665353509 112.63791142586739 H 0.0 **** 0.06
19923 H 116.64811914475551 52.514320956476624 113.15231329999891 H 0.0 **** 0.06
19924 H 117.94590602864379 52.44405731559576 114.36894827564491 H 0.0 **** 0.06
19925 H 117.51466619749557 50.98640841306573 113.44315334425936 H 0.0 **** 0.06
19926 C 56.18172398438146 63.90809047882591 111.93267894242321 C 0.0 **** -0.24
19927 H 56.5142192076857 62.90485285124231 111.666928935342 H 0.0 **** 0.06
19928 H 55.496492383263174 64.27692490287063 111.1704718520047 H 0.0 **** 0.06
19929 H 57.04479672478226 64.57144842501016 111.99790642184426 H 0.0 **** 0.06
19930 H 55.67354817016685 63.878339545496075 112.89624424777467 H 0.0 **** 0.06
19931 C 1.6575089185202785 56.47807556730224 67.78098592112883 C 0.0 **** -0.24
19932 H 1.7594763807888683 55.54035518257315 67.23545408976321 H 0.0 **** 0.06
19933 H 0.9090704050241527 56.362935064292444 68.56532792222004 H 0.0 **** 0.06
19934 H 1.346609294211504 57.26604379881245 67.09425931487095 H 0.0 **** 0.06
19935 H 2.6148441842770183 56.743943603141005 68.22912012920568 H 0.0 **** 0.06
19936 C 3.9919035581318667 115.74269760644938 94.29620421063808 C 0.0 **** -0.24
19937 H 3.6127497570624314 115.91732567358292 93.28968282669553 H 0.0 **** 0.06
19938 H 4.766750055641921 114.97516597466824 94.26389163975529 H 0.0 **** 0.06
19939 H 3.176310537952304 115.40964045797773 94.9388595633552 H 0.0 **** 0.06
19940 H 4.412655320746552 116.66719597509115 94.69201304049575 H 0.0 **** 0.06
19941 C 56.96628558260528 103.14973076254856 62.186436663070054 C 0.0 **** -0.24
19942 H 57.98787758086837 102.8939784458846 61.90507845144009 H 0.0 **** 0.06
19943 H 56.57792301581543 102.3936086898762 62.87004978589522 H 0.0 **** 0.06
19944 H 56.34258041092983 103.18750219077063 61.293375595909595 H 0.0 **** 0.06
19945 H 56.957936587018935 104.12305965727545 62.67710259555116 H 0.0 **** 0.06
19946 C 105.9703992904466 2.954757103117675 36.12400711671938 C 0.0 **** -0.24
19947 H 105.27208964153398 2.408951933165369 36.75835184926631 H 0.0 **** 0.06
19948 H 105.63284912977194 2.9057638335136105 35.088236634795564 H 0.0 **** 0.06
19949 H 106.96095723997199 2.508550759566795 36.20630960346046 H 0.0 **** 0.06
19950 H 106.01274213018168 3.9962440107924913 36.44324059616427 H 0.0 **** 0.06
19951 C 112.25443185140568 55.205047044922566 141.33666929933634 C 0.0 **** -0.24
19952 H 112.75742294402221 55.41855037994591 140.39356952754778 H 0.0 **** 0.06
19953 H 112.00191206214572 54.145698355452424 141.38155807456735 H 0.0 **** 0.06
19954 H 111.34367081316202 55.79962958805703 141.4051879818523 H 0.0 **** 0.06
19955 H 112.9154649487948 55.45668795928685 142.1658098036695 H 0.0 **** 0.06
19956 C 61.31034191857549 144.3428959049792 50.60247136542773 C 0.0 **** -0.24
19957 H 61.0952332294068 143.27370754857392 50.61068525449569 H 0.0 **** 0.06
19958 H 62.38608816816219 144.4971900775561 50.6922725616937 H 0.0 **** 0.06
19959 H 60.80280324903998 144.822055738753 51.44042142571929 H 0.0 **** 0.06
19960 H 60.95695373522881 144.7769061414964 49.66790047974612 H 0.0 **** 0.06
19961 C 45.81117345016463 85.26093599775696 143.91402246116255 C 0.0 **** -0.24
19962 H 46.41284015470268 85.34689309413386 143.00945050131506 H 0.0 **** 0.06
19963 H 46.44542725118208 84.9526061959923 144.74449985348824 H 0.0 **** 0.06
19964 H 45.027809053572525 84.51952325861112 143.7592799858465 H 0.0 **** 0.06
19965 H 45.3584387221747 86.2262448702763 144.14094965465858 H 0.0 **** 0.06
19966 C 54.06414304145504 56.55337706586539 80.72577223813038 C 0.0 **** -0.24
19967 H 54.74542703094964 56.14945595712135 81.47599477093917 H 0.0 **** 0.06
19968 H 53.4554106040968 57.33840390621009 81.17401163876382 H 0.0 **** 0.06
19969 H 53.41826477515542 55.75695901061471 80.35566893288264 H 0.0 **** 0.06
19970 H 54.6407129225547 56.96724450907378 79.89859462656518 H 0.0 **** 0.06
19971 C 71.55123889662713 124.67821925688524 141.33215415550944 C 0.0 **** -0.24
19972 H 71.78660350340819 124.23365748745951 142.2990761925306 H 0.0 **** 0.06
19973 H 71.4377109097838 123.89001354857234 140.58824419437826 H 0.0 **** 0.06
19974 H 72.35872953221332 125.34744421861778 141.033825887611 H 0.0 **** 0.06
19975 H 70.62193846051537 125.24207237931856 141.40884980093523 H 0.0 **** 0.06
19976 C 97.66462715513762 10.796078026303178 123.15173156865443 C 0.0 **** -0.24
19977 H 97.93282633657702 10.46530583468791 122.1487181983233 H 0.0 **** 0.06
19978 H 98.5428399539503 10.748283674288587 123.79649193252367 H 0.0 **** 0.06
19979 H 96.88485168736509 10.148298280475046 123.55180468794296 H 0.0 **** 0.06
19980 H 97.29889582008389 11.82162701602374 123.11064973377066 H 0.0 **** 0.06
19981 C 130.4346528608874 108.6743192285026 122.53836068929303 C 0.0 **** -0.24
19982 H 129.3960146658021 108.67018829512232 122.86926028028944 H 0.0 **** 0.06
19983 H 130.9804781994426 109.45520281668514 123.06771634482038 H 0.0 **** 0.06
19984 H 130.47360422226728 108.86608617750717 121.46564023863357 H 0.0 **** 0.06
19985 H 130.8871959127552 107.70556988722721 122.75036871144033 H 0.0 **** 0.06
19986 C 89.99443478437394 98.607039856429 133.6439196626386 C 0.0 **** -0.24
19987 H 89.90340021900369 98.26833362675828 134.67576687880955 H 0.0 **** 0.06
19988 H 89.08033286548829 99.12353610521441 133.34976793802417 H 0.0 **** 0.06
19989 H 90.15377400023243 97.74832311425357 132.99263369059184 H 0.0 **** 0.06
19990 H 90.84070128044476 99.28924718230454 133.55954487748812 H 0.0 **** 0.06
19991 C 138.61720213926398 43.552163625140906 74.12722372616221 C 0.0 **** -0.24
19992 H 139.56935018271503 43.225250039087655 73.70896720212995 H 0.0 **** 0.06
19993 H 138.0045066595223 42.67989132768014 74.35774756682538 H 0.0 **** 0.06
19994 H 138.09838603869224 44.1798603929534 73.40358883071293 H 0.0 **** 0.06
19995 H 138.797509588269 44.12074050904482 75.03986739914836 H 0.0 **** 0.06
19996 C 17.24658116859527 142.9314047729673 86.22799413729406 C 0.0 **** -0.24
19997 H 17.542176910755387 142.74192097195925 85.1961690862926 H 0.0 **** 0.06
19998 H 17.336557556317956 142.01103265947071 86.80571756210695 H 0.0 **** 0.06
19999 H 16.21261208006473 143.27605889487108 86.25128298776293 H 0.0 **** 0.06
20000 H 17.894349920079037 143.69487453042552 86.6571927035738 H 0.0 **** 0.06
20001 C 37.64874936645748 62.14591785807768 19.16278291428594 C 0.0 **** -0.24
20002 H 36.80423424754386 62.36327908977481 18.50844261474255 H 0.0 **** 0.06
20003 H 37.32764635818532 62.207722593239964 20.201981583927278 H 0.0 **** 0.06
20004 H 38.44208350277772 62.87203244889835 18.98377322128934 H 0.0 **** 0.06
20005 H 38.02068649063568 61.142739014215906 18.95482168525247 H 0.0 **** 0.06
20006 C 34.146333118901026 15.083427119266446 21.865079715887184 C 0.0 **** -0.24
20007 H 33.169673373459375 14.769943496869189 22.235006323427548 H 0.0 **** 0.06
20008 H 34.80099399334004 14.215075068854503 21.785821989458803 H 0.0 **** 0.06
20009 H 34.58131252060639 15.805856888439905 22.556923713860947 H 0.0 **** 0.06
20010 H 34.032327738102026 15.543566955126096 20.883208017848155 H 0.0 **** 0.06
20011 C 11.046446665296088 27.268474129654585 26.212474386922224 C 0.0 **** -0.24
20012 H 10.765748845288897 28.05970273274339 26.907124583824725 H 0.0 **** 0.06
20013 H 10.441680207545232 27.346778721906468 25.309413044659948 H 0.0 **** 0.06
20014 H 10.879374289571587 26.29841219611525 26.680243076556394 H 0.0 **** 0.06
20015 H 12.09994419129518 27.36987470965792 25.953679606575804 H 0.0 **** 0.06
20016 C 7.327543790096762 121.66522070542149 14.634463668853435 C 0.0 **** -0.24
20017 H 7.115196356013364 120.59609564677547 14.591368953158394 H 0.0 **** 0.06
20018 H 8.384674150476869 121.81669410579863 14.85422066049378 H 0.0 **** 0.06
20019 H 6.723141706869701 122.12410412947466 15.416549339680017 H 0.0 **** 0.06
20020 H 7.085870534720932 122.12155134848499 13.674170323548516 H 0.0 **** 0.06
20021 C 7.396534905553835 57.92696772411843 92.12683121725223 C 0.0 **** -0.24
20022 H 7.779462142538165 57.917131586922125 91.10659994144106 H 0.0 **** 0.06
20023 H 7.623230818581021 56.9760661784578 92.60908023260366 H 0.0 **** 0.06
20024 H 6.317508433205262 58.07777197923224 92.10794169056564 H 0.0 **** 0.06
20025 H 7.866709563261139 58.73872248649566 92.68340642957487 H 0.0 **** 0.06
20026 C 63.52562427997863 74.57612428988975 129.40815688640745 C 0.0 **** -0.24
20027 H 63.0143172368432 73.64625314196306 129.65790409525744 H 0.0 **** 0.06
20028 H 62.81555021553592 75.40224759602708 129.44359691227174 H 0.0 **** 0.06
20029 H 63.946625152647414 74.49975274503683 128.4054981400107 H 0.0 **** 0.06
20030 H 64.32697552686449 74.75340576056837 130.1255670640679 H 0.0 **** 0.06
20031 C 66.98076742165469 17.978039546493648 86.05375084387447 C 0.0 **** -0.24
20032 H 66.6181651979771 18.01764770788587 85.02657816185234 H 0.0 **** 0.06
20033 H 67.81198831802755 17.275672621126347 86.11839165249518 H 0.0 **** 0.06
20034 H 66.17533922088231 17.651083389537447 86.71121793160404 H 0.0 **** 0.06
20035 H 67.31839163173751 18.968943543370955 86.35683506050799 H 0.0 **** 0.06
20036 C 52.56804240990009 132.98555690433096 134.8076291150892 C 0.0 **** -0.24
20037 H 53.59686881562713 133.17670807648767 134.5057048385692 H 0.0 **** 0.06
20038 H 52.28782747467258 131.97134050507037 134.5216769899762 H 0.0 **** 0.06
20039 H 51.905495647362486 133.69817569303248 134.31480235605025 H 0.0 **** 0.06
20040 H 52.48059470141085 133.09625544251244 135.8881778652453 H 0.0 **** 0.06
20041 C 53.295115267526484 131.68596003372673 92.19364403668601 C 0.0 **** -0.24
20042 H 53.7315131856474 131.52008639549777 91.20810675207541 H 0.0 **** 0.06
20043 H 53.31736260616083 130.75581576418054 92.76115313256715 H 0.0 **** 0.06
20044 H 52.26342534595054 132.0191027570185 92.08226758644429 H 0.0 **** 0.06
20045 H 53.8676856286651 132.44832530852676 92.72070021015303 H 0.0 **** 0.06
20046 C 41.94783609451089 97.95043818619155 117.29396164790629 C 0.0 **** -0.24
20047 H 42.60797277567356 97.65597236238148 116.47671050098799 H 0.0 **** 0.06
20048 H 41.56709595728239 97.05855607755097 117.79140424588573 H 0.0 **** 0.06
20049 H 41.1149991861423 98.52938277347124 116.89597709379737 H 0.0 **** 0.06
20050 H 42.5036483375942 98.55664923562995 118.00859985552668 H 0.0 **** 0.06
20051 C 66.90424843253399 136.20365799911303 55.10555958608235 C 0.0 **** -0.24
20052 H 66.2752598756451 136.262403927786 55.993645839374494 H 0.0 **** 0.06
20053 H 67.5903995849596 137.05123048143562 55.0893905335769 H 0.0 **** 0.06
20054 H 66.27717771313495 136.22704953751017 54.214352516200904 H 0.0 **** 0.06
20055 H 67.47388589374643 135.27525677160605 55.12531213878391 H 0.0 **** 0.06
20056 C 88.98280346922502 34.1042970039262 38.88757729616427 C 0.0 **** -0.24
20057 H 89.68169685358782 33.52735297848949 39.49411218651849 H 0.0 **** 0.06
20058 H 88.74600723426295 33.54853443468478 37.97982433218078 H 0.0 **** 0.06
20059 H 89.43588047353126 35.058708643449705 38.6208330116457 H 0.0 **** 0.06
20060 H 88.06879643095442 34.28109082430426 39.454362940943795 H 0.0 **** 0.06
20061 C 109.01695039073563 39.256417463790314 98.4914020218408 C 0.0 **** -0.24
20062 H 108.78488097895094 38.723558138523856 97.56939029999876 H 0.0 **** 0.06
20063 H 109.79098068080704 39.998681796876724 98.29714535207981 H 0.0 **** 0.06
20064 H 109.37348483466265 38.547937500146645 99.23996483471487 H 0.0 **** 0.06
20065 H 108.11976708715498 39.75377305627978 98.8596755928601 H 0.0 **** 0.06
20066 C 53.95104190541382 81.46885476233219 102.39153288898825 C 0.0 **** -0.24
20067 H 53.48249762665749 80.49144744727623 102.50277612612027 H 0.0 **** 0.06
20068 H 54.996967366808676 81.40659081408987 102.69285339852397 H 0.0 **** 0.06
20069 H 53.43350914370528 82.19396493975022 103.02028721693767 H 0.0 **** 0.06
20070 H 53.891383657582 81.78453771944027 101.3493749771815 H 0.0 **** 0.06
20071 C 42.874968362485006 31.527149912744697 114.8337613266028 C 0.0 **** -0.24
20072 H 41.8915300351494 31.507166514106814 115.30361835364138 H 0.0 **** 0.06
20073 H 43.48046789270035 30.70900617039233 115.22468211525572 H 0.0 **** 0.06
20074 H 43.362274371700536 32.47701931450562 115.05230386757339 H 0.0 **** 0.06
20075 H 42.764376559885235 31.415082746249006 113.75506938201144 H 0.0 **** 0.06
20076 C 37.522285213174136 53.9141439339503 1.510527173801961 C 0.0 **** -0.24
20077 H 37.628782953538256 53.82314940411163 2.591385681383599 H 0.0 **** 0.06
20078 H 37.074647799974876 54.8788716510889 1.2700628117065662 H 0.0 **** 0.06
20079 H 36.88334712212811 53.113740172269445 1.1399576825391762 H 0.0 **** 0.06
20080 H 38.50405009706565 53.84196690265685 1.0416112724595337 H 0.0 **** 0.06
20081 C 38.69391294355341 34.71096239053702 114.49327735599883 C 0.0 **** -0.24
20082 H 38.18339622970295 34.62017873228958 115.45181837745162 H 0.0 **** 0.06
20083 H 39.51772263464163 33.99810986910801 114.4516265241096 H 0.0 **** 0.06
20084 H 39.083592219310255 35.72288355714012 114.3824102640441 H 0.0 **** 0.06
20085 H 37.99106092213421 34.50120231119008 113.68635438186203 H 0.0 **** 0.06
20086 C 24.20500632857744 17.430126171500348 77.57207085218806 C 0.0 **** -0.24
20087 H 23.82635436802127 18.33438884323874 77.09631505397746 H 0.0 **** 0.06
20088 H 23.52603719430911 16.601596857771057 77.37024917015734 H 0.0 **** 0.06
20089 H 24.275631445014398 17.588211294444278 78.6484411894294 H 0.0 **** 0.06
20090 H 25.19288089406072 17.195836548175123 77.17335643791921 H 0.0 **** 0.06
20091 C 14.329543001977953 115.94431780290752 99.57413184301063 C 0.0 **** -0.24
20092 H 13.508829024645081 115.50021495875295 99.01143556783293 H 0.0 **** 0.06
20093 H 14.135172848971536 115.84026972194015 100.64161820743166 H 0.0 **** 0.06
20094 H 14.414062503978414 117.00061953571121 99.32040765393455 H 0.0 **** 0.06
20095 H 15.259494360982956 115.434064550696 99.32261444961651 H 0.0 **** 0.06
20096 C 129.1129076468954 129.27804124609838 10.672926449795526 C 0.0 **** -0.24
20097 H 129.8269455510773 129.57254135852307 9.903781174616817 H 0.0 **** 0.06
20098 H 129.48629848390664 128.39832522315638 11.197001723697532 H 0.0 **** 0.06
20099 H 128.15425484747087 129.04736097344363 10.209278653640546 H 0.0 **** 0.06
20100 H 128.98600349957098 130.09701831952103 11.381715441953268 H 0.0 **** 0.06
20101 C 62.32301219311978 103.4382291286516 52.473160729100016 C 0.0 **** -0.24
20102 H 63.29825911427734 103.1076456448126 52.83160867963501 H 0.0 **** 0.06
20103 H 61.73093501106369 103.80063450369975 53.314173748509546 H 0.0 **** 0.06
20104 H 61.80856803923061 102.60282288014459 51.998682604507906 H 0.0 **** 0.06
20105 H 62.45658232461339 104.2421943756914 51.748942651622926 H 0.0 **** 0.06
20106 C 127.47782689078286 81.35131536949073 115.7351121782114 C 0.0 **** -0.24
20107 H 126.77069198553608 80.58254991289499 115.4240787701144 H 0.0 **** 0.06
20108 H 126.99764300150457 82.01643200630976 116.45331912459729 H 0.0 **** 0.06
20109 H 127.79609877991777 81.92506650141478 114.86541482545182 H 0.0 **** 0.06
20110 H 128.3455579102053 80.88172211720219 116.19773289233781 H 0.0 **** 0.06
20111 C 1.3494591702844332 72.02576353058237 22.992081824076735 C 0.0 **** -0.24
20112 H 0.9409634233682596 72.27931950364578 23.970563561678517 H 0.0 **** 0.06
20113 H 2.1962984861294785 72.67745689037106 22.773038656097242 H 0.0 **** 0.06
20114 H 0.5798925244871498 72.16253184203235 22.23179336481664 H 0.0 **** 0.06
20115 H 1.6795573471882221 70.98717808370695 22.99390907364969 H 0.0 **** 0.06
20116 C 106.53655825375664 48.5432696941011 34.37080230301055 C 0.0 **** -0.24
20117 H 105.94104874818608 49.06257770822813 35.1207579366385 H 0.0 **** 0.06
20118 H 106.09409824330298 47.568487702581365 34.16666978618565 H 0.0 **** 0.06
20119 H 107.55311352766263 48.41160363513309 34.741375261986974 H 0.0 **** 0.06
20120 H 106.55840928010751 49.13206164295778 33.452963790733484 H 0.0 **** 0.06
20121 C 108.63833442813642 105.73390209582712 50.1732695599713 C 0.0 **** -0.24
20122 H 109.7176515099756 105.57968375113316 50.17039514227365 H 0.0 **** 0.06
20123 H 108.3099520337535 105.9824673134847 51.18294835759009 H 0.0 **** 0.06
20124 H 108.13953603965119 104.82268644801539 49.842727400747066 H 0.0 **** 0.06
20125 H 108.38691012749003 106.55210014117458 49.497859530198326 H 0.0 **** 0.06
20126 C 138.19266254052474 8.802537507587232 119.62255394200997 C 0.0 **** -0.24
20127 H 137.97287063954315 9.169979048988068 120.62541942262595 H 0.0 **** 0.06
20128 H 138.6659352199111 9.594812347625009 119.04164905271705 H 0.0 **** 0.06
20129 H 137.26615431446515 8.497975044276643 119.13656415089764 H 0.0 **** 0.06
20130 H 138.86635325497895 7.948946191044854 119.68925124791764 H 0.0 **** 0.06
20131 C 141.43638321161916 62.156776023296686 86.61017346496682 C 0.0 **** -0.24
20132 H 141.2476990628666 61.223469281111306 87.14185548260161 H 0.0 **** 0.06
20133 H 142.03884779392854 62.81604420176002 87.23456097621371 H 0.0 **** 0.06
20134 H 140.48759654694257 62.640784914444666 86.37856786351165 H 0.0 **** 0.06
20135 H 141.9707931561489 61.944272778323636 85.68391253786801 H 0.0 **** 0.06
20136 C 3.7506744627402746 83.59935704954 70.94193836142748 C 0.0 **** -0.24
20137 H 3.3672848782713665 83.41339546233772 69.93825432344752 H 0.0 **** 0.06
20138 H 3.1086442763535445 84.31993553902421 71.44869055178367 H 0.0 **** 0.06
20139 H 4.763255658118215 83.99772614667629 70.87477959230714 H 0.0 **** 0.06
20140 H 3.7643206135091667 82.66543407619102 71.50445733039643 H 0.0 **** 0.06
20141 C 19.09435065148699 135.9893990840372 140.40713768972645 C 0.0 **** -0.24
20142 H 18.078895306085712 135.71055847650587 140.68601434904616 H 0.0 **** 0.06
20143 H 19.590020917073957 135.1373144912976 139.94057280827394 H 0.0 **** 0.06
20144 H 19.646423510435227 136.28758103076504 141.29842887741052 H 0.0 **** 0.06
20145 H 19.06332028850244 136.8213558086665 139.70442937938265 H 0.0 **** 0.06
20146 C 104.85093668244843 119.09452862945433 84.36210650949403 C 0.0 **** -0.24
20147 H 105.06113875629495 118.86072151531086 85.4056553615869 H 0.0 **** 0.06
20148 H 103.77186572738049 119.13893028406518 84.20930489361339 H 0.0 **** 0.06
20149 H 105.27794448015851 118.3215873099402 83.72325054345544 H 0.0 **** 0.06
20150 H 105.29323409843761 120.05882723904772 84.1102273312315 H 0.0 **** 0.06
20151 C 46.14982133006616 102.17288065043505 66.55355362391617 C 0.0 **** -0.24
20152 H 45.53329964382908 102.31642818279204 65.66629435773825 H 0.0 **** 0.06
20153 H 46.337019184982395 103.1382839206874 67.02476422257399 H 0.0 **** 0.06
20154 H 47.0978294936416 101.71749877886492 66.26782516344286 H 0.0 **** 0.06
20155 H 45.62973604511811 101.52103485161467 67.2550692842878 H 0.0 **** 0.06
20156 C 75.97345553239639 143.63855917780205 4.776173509723662 C 0.0 **** -0.24
20157 H 76.11360326255816 143.21655460602256 3.7812470652299055 H 0.0 **** 0.06
20158 H 75.56739284650686 144.64585691926868 4.689011538425206 H 0.0 **** 0.06
20159 H 76.9322636161428 143.67529875915582 5.293737203410387 H 0.0 **** 0.06
20160 H 75.27974604271274 143.01382730390884 5.34047768950407 H 0.0 **** 0.06
20161 C 16.42790368195469 7.039306036070471 11.136746678338568 C 0.0 **** -0.24
20162 H 15.711216037070898 6.774202133071 10.358681970693766 H 0.0 **** 0.06
20163 H 16.648388552572783 8.105421022989141 11.078384228331913 H 0.0 **** 0.06
20164 H 17.345531803450854 6.469317137741594 10.994082222338108 H 0.0 **** 0.06
20165 H 16.003679663853177 6.808519499360376 12.114384900171075 H 0.0 **** 0.06
20166 C 116.05353946851142 24.960748902553632 67.2267313317125 C 0.0 **** -0.24
20167 H 116.44613528607272 25.626654735590762 67.99612713650276 H 0.0 **** 0.06
20168 H 116.2213106544636 23.925358872238775 67.52253057465819 H 0.0 **** 0.06
20169 H 116.56317422947336 25.15756600001947 66.2827602516235 H 0.0 **** 0.06
20170 H 114.98463763149664 25.13637481600071 67.1053175792604 H 0.0 **** 0.06
20171 C 1.2657151383405356 13.71099414262848 44.551580193755825 C 0.0 **** -0.24
20172 H 2.2147566515306885 13.771796628289536 45.08581350773878 H 0.0 **** 0.06
20173 H 1.3074290445762635 14.344225537649876 43.66502457054716 H 0.0 **** 0.06
20174 H 0.4599202299740597 14.048650568611677 45.203454880226516 H 0.0 **** 0.06
20175 H 1.0829621181659306 12.67851108990071 44.25273407408919 H 0.0 **** 0.06
20176 C 28.723640107816983 71.49827613439925 94.98615529520319 C 0.0 **** -0.24
20177 H 27.713832448552218 71.65627897006544 95.36263692546304 H 0.0 **** 0.06
20178 H 29.42496563896991 72.10271997830087 95.56276183737378 H 0.0 **** 0.06
20179 H 28.769775830657508 71.79012813235857 93.9373298714429 H 0.0 **** 0.06
20180 H 28.98637478313004 70.44526302207274 95.08233600549772 H 0.0 **** 0.06
20181 C 72.78947500359848 49.26432576549581 38.89956438586344 C 0.0 **** -0.24
20182 H 72.29579248271646 48.33657993174988 39.18846942937506 H 0.0 **** 0.06
20183 H 72.04245569498474 49.98458131328414 38.565871417335714 H 0.0 **** 0.06
20184 H 73.49008611471635 49.06486121717579 38.089034411426496 H 0.0 **** 0.06
20185 H 73.32923484248474 49.66908040735126 39.75510564707926 H 0.0 **** 0.06
20186 C 6.282462127874936 7.580395400491938 124.86680235988189 C 0.0 **** -0.24
20187 H 7.19316427186277 7.634566468433974 125.46183590635542 H 0.0 **** 0.06
20188 H 5.693837029553492 6.717715636557017 125.18187393325763 H 0.0 **** 0.06
20189 H 6.54204552765853 7.478741653440579 123.81359828629945 H 0.0 **** 0.06
20190 H 5.699099862464635 8.490142574705317 125.01086647440445 H 0.0 **** 0.06
20191 C 61.03848500425005 48.0105741104326 63.437682365311744 C 0.0 **** -0.24
20192 H 60.89769955346186 47.26465399783832 64.21996654804003 H 0.0 **** 0.06
20193 H 62.076508175819384 47.997033846180884 63.106096129021594 H 0.0 **** 0.06
20194 H 60.795500842058345 48.998485444162654 63.83022132322469 H 0.0 **** 0.06
20195 H 60.384159152368284 47.78301661949149 62.596725100050634 H 0.0 **** 0.06
20196 C 122.22557535707652 122.7317010707702 71.57707285039652 C 0.0 **** -0.24
20197 H 122.67287383389895 122.60384746400005 70.59222040051085 H 0.0 **** 0.06
20198 H 122.30923684953326 121.80039694066234 72.13813105815159 H 0.0 **** 0.06
20199 H 121.1741045283634 122.99701653550838 71.46710150937027 H 0.0 **** 0.06
20200 H 122.7465644099078 123.52607208022482 72.11270710759015 H 0.0 **** 0.06
20201 C 31.952698576469572 85.39798195830056 30.357886934760707 C 0.0 **** -0.24
20202 H 32.97810258116024 85.55790932732506 30.688523719945692 H 0.0 **** 0.06
20203 H 31.460371795307623 84.69338215618544 31.029440678953712 H 0.0 **** 0.06
20204 H 31.956316498007652 84.9930747502481 29.345170279661573 H 0.0 **** 0.06
20205 H 31.414826835553555 86.34633144754338 30.36809293620007 H 0.0 **** 0.06
20206 C 69.27125488494377 12.605865532828425 39.36845524428199 C 0.0 **** -0.24
20207 H 68.96858698386185 12.493401750185711 40.408802238837495 H 0.0 **** 0.06
20208 H 68.47527083302487 13.100367221669671 38.81001505305727 H 0.0 **** 0.06
20209 H 69.46195957122751 11.623241714985262 38.936909124223746 H 0.0 **** 0.06
20210 H 70.17856544076287 13.206926247820597 39.31692441213954 H 0.0 **** 0.06
20211 C 137.89082924537314 121.61940206514282 60.874757862612086 C 0.0 **** -0.24
20212 H 137.03484089387592 121.4677260052033 61.53217341100202 H 0.0 **** 0.06
20213 H 138.8128052993921 121.49797133129624 61.44405274504874 H 0.0 **** 0.06
20214 H 137.85286481181748 122.62538586852037 60.455638274204006 H 0.0 **** 0.06
20215 H 137.86279625224972 120.88749646882604 60.06692973266108 H 0.0 **** 0.06
20216 C 95.37470688999568 68.2249579427812 125.09810208611154 C 0.0 **** -0.24
20217 H 94.3979578329963 68.68095536720358 125.25934885147159 H 0.0 **** 0.06
20218 H 95.32736786688235 67.5641824583826 124.23124640683179 H 0.0 **** 0.06
20219 H 95.6564779534651 67.64991518128835 125.97944919798623 H 0.0 **** 0.06
20220 H 96.11447460041175 69.00493715046052 124.9202481301196 H 0.0 **** 0.06
20221 C 108.41437736736954 140.51724219713313 139.1874419984436 C 0.0 **** -0.24
20222 H 108.95543043335196 141.3055301364255 139.71086783020394 H 0.0 **** 0.06
20223 H 108.50141088491422 140.67027421543207 138.1114455795681 H 0.0 **** 0.06
20224 H 107.36347652815813 140.54661552034466 139.47419363897797 H 0.0 **** 0.06
20225 H 108.8376799345633 139.54887302827555 139.45266068039277 H 0.0 **** 0.06
20226 C 63.72666198746147 121.11717158931735 101.59363540955088 C 0.0 **** -0.24
20227 H 62.94907213949567 121.6290223415502 101.026514841051 H 0.0 **** 0.06
20228 H 64.45364243364132 120.68664913851303 100.90566251375506 H 0.0 **** 0.06
20229 H 63.27714460875036 120.32497521604274 102.1920039503678 H 0.0 **** 0.06
20230 H 64.22451248903808 121.82998574002424 102.25018221935647 H 0.0 **** 0.06
20231 C 95.66538454786998 84.47590045086308 128.8546596458372 C 0.0 **** -0.24
20232 H 95.28414303060329 83.49584770844338 129.1408298893387 H 0.0 **** 0.06
20233 H 95.7607900266747 84.5252778880159 127.76957043422686 H 0.0 **** 0.06
20234 H 96.6425278555035 84.63243299152616 129.3125531429839 H 0.0 **** 0.06
20235 H 94.97590166225258 85.24769465015898 129.19528982098564 H 0.0 **** 0.06
20236 C 48.28560551347324 26.678396818212548 142.3831215852844 C 0.0 **** -0.24
20237 H 47.27082218213258 26.305521738524988 142.2426905310093 H 0.0 **** 0.06
20238 H 48.336122927500426 27.25678562069038 143.305377114037 H 0.0 **** 0.06
20239 H 48.55804023901868 27.313348040871375 141.5399358570945 H 0.0 **** 0.06
20240 H 48.97670565501454 25.83759896204637 142.44239598623977 H 0.0 **** 0.06
20241 C 113.34054341173304 43.94675781918136 105.034221476308 C 0.0 **** -0.24
20242 H 113.99740892059485 44.63155382538389 104.49859847926228 H 0.0 **** 0.06
20243 H 113.86932939714184 43.01406860043926 105.23018344085563 H 0.0 **** 0.06
20244 H 112.45603971017478 43.74463577673157 104.43087353344686 H 0.0 **** 0.06
20245 H 113.03932606997309 44.39940371000404 105.97989043843222 H 0.0 **** 0.06
20246 C 68.5929973233863 88.79897245864423 71.64431875028328 C 0.0 **** -0.24
20247 H 69.06784688499016 88.51695493795546 70.70531244084226 H 0.0 **** 0.06
20248 H 67.67502832929821 88.22549619302914 71.77309683894767 H 0.0 **** 0.06
20249 H 68.35870693540471 89.86289293408602 71.62850460110263 H 0.0 **** 0.06
20250 H 69.27096271844255 88.5890907114246 72.47161583836902 H 0.0 **** 0.06
20251 C 51.78516096019584 76.59720433475746 61.799155645779976 C 0.0 **** -0.24
20252 H 50.91959646713862 75.9351583529971 61.77865893499208 H 0.0 **** 0.06
20253 H 51.78372816855948 77.16861234894371 62.72745556030148 H 0.0 **** 0.06
20254 H 51.73925605072294 77.28065462222168 60.951527589354384 H 0.0 **** 0.06
20255 H 52.6980363473816 76.00409689627 61.73993560583824 H 0.0 **** 0.06
20256 C 23.480243332733636 51.687313169565016 28.902654363873552 C 0.0 **** -0.24
20257 H 23.372292278335777 50.94412389949997 29.692959491901178 H 0.0 **** 0.06
20258 H 24.510241468314376 51.688344185685764 28.5445779496784 H 0.0 **** 0.06
20259 H 23.230047934614618 52.6727270680791 29.294035957323217 H 0.0 **** 0.06
20260 H 22.809311733744124 51.44179747239019 28.078829884674263 H 0.0 **** 0.06
20261 C 70.91112229078931 133.84334918080043 51.67534865311437 C 0.0 **** -0.24
20262 H 69.93512735638052 133.53998487294783 52.053573270754555 H 0.0 **** 0.06
20263 H 70.82801811849772 134.8208298298172 51.19799525448265 H 0.0 **** 0.06
20264 H 71.26160556327629 133.1122863984677 50.94713126927856 H 0.0 **** 0.06
20265 H 71.61886709413457 133.9020775546843 52.501662229235805 H 0.0 **** 0.06
20266 C 26.298742038780105 123.48416494442617 109.38932831235326 C 0.0 **** -0.24
20267 H 25.4514083371497 124.1412046289475 109.1919520963483 H 0.0 **** 0.06
20268 H 26.411763377058442 122.78022371344012 108.56536971019563 H 0.0 **** 0.06
20269 H 26.123717497180586 122.93569642834285 110.31570062372981 H 0.0 **** 0.06
20270 H 27.20669105625975 124.08045260604733 109.48608860733532 H 0.0 **** 0.06
20271 C 17.70168157154974 73.7368544640241 103.15204881801094 C 0.0 **** -0.24
20272 H 17.115439708557005 72.92889495501682 102.71320619454016 H 0.0 **** 0.06
20273 H 17.413115529725218 73.86952934427649 104.19448821101108 H 0.0 **** 0.06
20274 H 17.51447757006494 74.6596106576828 102.60214191578481 H 0.0 **** 0.06
20275 H 18.761239291777272 73.48859840204467 103.09627040682474 H 0.0 **** 0.06
20276 C 132.75250323716918 137.71083005216198 135.47935912041723 C 0.0 **** -0.24
20277 H 133.35506002114798 138.4554077576934 135.9998946841883 H 0.0 **** 0.06
20278 H 133.39501397935706 137.10903468930962 134.8370109582675 H 0.0 **** 0.06
20279 H 132.00042616709626 138.2140851688065 134.87183359913428 H 0.0 **** 0.06
20280 H 132.26045198368624 137.06781190156997 136.20865130469772 H 0.0 **** 0.06
20281 C 89.34829596647077 27.134934980848797 131.86914433095657 C 0.0 **** -0.24
20282 H 88.66558411771699 26.858847546341025 132.67349202231543 H 0.0 **** 0.06
20283 H 88.81853260430242 27.10664106393095 130.9169620318512 H 0.0 **** 0.06
20284 H 90.18057307233332 26.43213711926768 131.8429175107632 H 0.0 **** 0.06
20285 H 89.72769784826454 28.141495697546617 132.04419751400226 H 0.0 **** 0.06
20286 C 64.72903276722684 132.06517968687842 109.96087230463395 C 0.0 **** -0.24
20287 H 63.94925812104029 131.82623411653623 110.68385390937918 H 0.0 **** 0.06
20288 H 65.69960868580483 132.05988905318816 110.45731093037755 H 0.0 **** 0.06
20289 H 64.54211382176666 133.0529930448942 109.53760518903918 H 0.0 **** 0.06
20290 H 64.72410475597704 131.32202951664306 109.16340604076471 H 0.0 **** 0.06
20291 C 137.53520988064662 7.794211062611964 11.779132068813425 C 0.0 **** -0.24
20292 H 136.68208975083576 7.134026547068828 11.937692392973219 H 0.0 **** 0.06
20293 H 137.17933795247922 8.805141870414445 11.577045383156559 H 0.0 **** 0.06
20294 H 138.11828084025893 7.436256117852196 10.930477003748251 H 0.0 **** 0.06
20295 H 138.1598032030858 7.800781080199897 12.672995569971448 H 0.0 **** 0.06
20296 C 116.57529377794698 3.2452728700912417 77.96438035308876 C 0.0 **** -0.24
20297 H 116.18749855240686 4.0914220304912305 77.39687407861572 H 0.0 **** 0.06
20298 H 117.65919833537369 3.3276886238037946 78.04428308779529 H 0.0 **** 0.06
20299 H 116.31632639685553 2.3174146303369696 77.45630871211245 H 0.0 **** 0.06
20300 H 116.13698149505392 3.247318756318066 78.96230372077969 H 0.0 **** 0.06
20301 C 104.98631813450714 139.053861655174 77.59763524977868 C 0.0 **** -0.24
20302 H 104.05410016212001 139.57833102511023 77.38628611349344 H 0.0 **** 0.06
20303 H 104.96667235775328 138.07352051824563 77.12185149322046 H 0.0 **** 0.06
20304 H 105.09889955486014 138.93399826477312 78.67527948562932 H 0.0 **** 0.06
20305 H 105.82379941183315 139.63122757263915 77.20681230235856 H 0.0 **** 0.06
20306 C 76.02178508313706 15.398382388695865 58.82202089334089 C 0.0 **** -0.24
20307 H 75.57573686821905 16.39235205005491 58.82591298117046 H 0.0 **** 0.06
20308 H 75.81661047719203 14.911881855475912 57.867961383522754 H 0.0 **** 0.06
20309 H 75.59684246668664 14.806666718540896 59.631677705721415 H 0.0 **** 0.06
20310 H 77.09954319297255 15.48381751729002 58.96150638120383 H 0.0 **** 0.06
20311 C 106.06726579909422 22.069519330749863 109.6138286821621 C 0.0 **** -0.24
20312 H 105.86648976689015 23.137355941708087 109.5297880145947 H 0.0 **** 0.06
20313 H 106.38022856611148 21.680652933096304 108.64422815645712 H 0.0 **** 0.06
20314 H 105.16277333931824 21.553891528038832 109.93774887398824 H 0.0 **** 0.06
20315 H 106.85987774572992 21.905333439365997 110.34464277820955 H 0.0 **** 0.06
20316 C 50.39321724104957 110.40365306153824 5.4603307244789505 C 0.0 **** -0.24
20317 H 49.787695487284125 109.49664623066046 5.465523523158481 H 0.0 **** 0.06
20318 H 49.80385689384113 111.23661000877003 5.84428648065213 H 0.0 **** 0.06
20319 H 50.71016488976491 110.62155741235266 4.44049212243894 H 0.0 **** 0.06
20320 H 51.270748326974385 110.25753484317063 6.090176385379522 H 0.0 **** 0.06
20321 C 56.30849821460305 32.19571052268753 44.637037278783794 C 0.0 **** -0.24
20322 H 55.95717473680037 33.18253119815354 44.93871039870845 H 0.0 **** 0.06
20323 H 55.721989510914966 31.844905270202112 43.78799010426059 H 0.0 **** 0.06
20324 H 56.19618482028329 31.499960010390375 45.46905822755281 H 0.0 **** 0.06
20325 H 57.35959509434389 32.25501152858216 44.353771226190474 H 0.0 **** 0.06
20326 C 108.20820315289691 36.519560999800746 9.557803946292523 C 0.0 **** -0.24
20327 H 107.57210667650443 36.84384218017436 10.38205144033725 H 0.0 **** 0.06
20328 H 107.71515494866472 36.741377687206466 8.610325817038387 H 0.0 **** 0.06
20329 H 108.38225795281667 35.44649010289203 9.634057804648279 H 0.0 **** 0.06
20330 H 109.16058146954256 37.047313992258665 9.604582160779216 H 0.0 **** 0.06
20331 C 54.46635168977291 107.87997564727281 123.2580105940757 C 0.0 **** -0.24
20332 H 54.063375828469105 107.88213099213313 124.27037498994201 H 0.0 **** 0.06
20333 H 54.98237485265433 108.82122101583933 123.07030039244866 H 0.0 **** 0.06
20334 H 53.651770977055094 107.76335531203922 122.54328347774266 H 0.0 **** 0.06
20335 H 55.167070978268825 107.05266554109416 123.14784553242418 H 0.0 **** 0.06
20336 C 121.30423968276 6.4060646149655724 91.19685916237276 C 0.0 **** -0.24
20337 H 121.14949787103257 5.415884140729304 90.76895441774987 H 0.0 **** 0.06
20338 H 122.22337179680574 6.835193957883803 90.79826030536795 H 0.0 **** 0.06
20339 H 121.38062568607774 6.324458448655832 92.28044369765178 H 0.0 **** 0.06
20340 H 120.46110975899433 7.048083650845541 90.93954721848142 H 0.0 **** 0.06
20341 C 134.91966725667754 123.96179739111255 114.80769684790418 C 0.0 **** -0.24
20342 H 134.15751353058542 123.2734752358456 115.1710095807852 H 0.0 **** 0.06
20343 H 135.90142266134097 123.49531796769595 114.89245056410876 H 0.0 **** 0.06
20344 H 134.89769314747468 124.87521527343924 115.4030512447509 H 0.0 **** 0.06
20345 H 134.72123644837458 124.20455043456764 113.7635833066676 H 0.0 **** 0.06
20346 C 83.18872169203043 139.6583348969883 1.406589737823822 C 0.0 **** -0.24
20347 H 83.57899327313696 139.06211612448956 2.2315480248415724 H 0.0 **** 0.06
20348 H 82.3907398571335 139.1083706616664 0.9068085182744312 H 0.0 **** 0.06
20349 H 83.99070913293076 139.8624635703006 0.6956715850744786 H 0.0 **** 0.06
20350 H 82.7966375179925 140.5994092339825 1.791850655809128 H 0.0 **** 0.06
20351 C 79.82994530010768 64.87883769296715 23.15085134206396 C 0.0 **** -0.24
20352 H 80.36641675546596 63.95319301040587 22.942260362253194 H 0.0 **** 0.06
20353 H 79.9946736398945 65.58489792661418 22.33615847183222 H 0.0 **** 0.06
20354 H 80.19497899562688 65.3077964988987 24.08326465005922 H 0.0 **** 0.06
20355 H 78.76439150737482 64.66871169864294 23.23999757937898 H 0.0 **** 0.06
20356 C 43.56706129566061 23.486107317406947 104.78291029636607 C 0.0 **** -0.24
20357 H 42.89651950260587 24.079591770269587 105.40493266992767 H 0.0 **** 0.06
20358 H 44.448269916433944 24.077372661043455 104.5326912242387 H 0.0 **** 0.06
20359 H 43.05152971541068 23.19782410427655 103.86652342450718 H 0.0 **** 0.06
20360 H 43.870827741635864 22.59140808687613 105.32667508411835 H 0.0 **** 0.06
20361 C 63.0088953964958 96.13999418010064 60.73650978913811 C 0.0 **** -0.24
20362 H 62.84064712698182 96.29564476780376 59.67025730087697 H 0.0 **** 0.06
20363 H 63.941746192051966 95.59433545787374 60.880276514252444 H 0.0 **** 0.06
20364 H 62.182581219864176 95.56469466931134 61.15372944257169 H 0.0 **** 0.06
20365 H 63.07027833608704 97.1052943367277 61.23847553924956 H 0.0 **** 0.06
20366 C 104.51164907081608 68.64310277476346 124.76785362919833 C 0.0 **** -0.24
20367 H 105.58207130231453 68.68189909461393 124.9692536743629 H 0.0 **** 0.06
20368 H 104.00454217636411 69.41314469142321 125.35007007013434 H 0.0 **** 0.06
20369 H 104.12493110934808 67.6629271402631 125.04699668426588 H 0.0 **** 0.06
20370 H 104.33547935742136 68.81474919217106 123.70640622347298 H 0.0 **** 0.06
20371 C 91.88647091454975 52.04696523636815 104.88046405351557 C 0.0 **** -0.24
20372 H 92.59136376574394 51.555244017554344 105.55031939292267 H 0.0 **** 0.06
20373 H 91.01768415111108 52.380544405042144 105.44783464559534 H 0.0 **** 0.06
20374 H 91.56911871630494 51.343986435641085 104.10975508213862 H 0.0 **** 0.06
20375 H 92.36768957604706 52.90615695633795 104.41281664263512 H 0.0 **** 0.06
20376 C 122.24234404802262 59.107310610401086 72.98873999157968 C 0.0 **** -0.24
20377 H 121.31866382454054 58.53025038448297 73.0213160468978 H 0.0 **** 0.06
20378 H 122.39253907091388 59.49568992406785 71.98097965375939 H 0.0 **** 0.06
20379 H 123.08156059265382 58.46595491611663 73.25910897661547 H 0.0 **** 0.06
20380 H 122.17799044351737 59.93703836782345 73.69255200591391 H 0.0 **** 0.06
20381 C 39.38046688873314 88.74463084074833 31.677983306708427 C 0.0 **** -0.24
20382 H 40.41464572635144 88.39985499546839 31.67560468481166 H 0.0 **** 0.06
20383 H 39.35289693956534 89.81103295455009 31.450680880041872 H 0.0 **** 0.06
20384 H 38.94138725349785 88.5705685985404 32.66002469056349 H 0.0 **** 0.06
20385 H 38.81405875649435 88.1973016346204 30.923702511667898 H 0.0 **** 0.06
20386 C 124.58672246650787 131.02253554308095 59.58384845374522 C 0.0 **** -0.24
20387 H 125.0050904905262 131.28022595267026 58.610410327462574 H 0.0 **** 0.06
20388 H 124.79007699722737 129.97391141654697 59.80105175547217 H 0.0 **** 0.06
20389 H 123.50949322170683 131.18997437087853 59.57122656663475 H 0.0 **** 0.06
20390 H 125.04297402774486 131.6480738958037 60.351578362126986 H 0.0 **** 0.06
20391 C 99.99713800352845 110.30467557933818 130.26069231371582 C 0.0 **** -0.24
20392 H 100.85281942595424 110.39697750068476 130.9294490319774 H 0.0 **** 0.06
20393 H 100.27581821696032 109.70138131335912 129.3965237668972 H 0.0 **** 0.06
20394 H 99.68823485155167 111.29547872833129 129.92776912076013 H 0.0 **** 0.06
20395 H 99.17352314760467 109.82561648653851 130.78921744154695 H 0.0 **** 0.06
20396 C 7.307008312727646 133.21746510152929 25.510687775087874 C 0.0 **** -0.24
20397 H 8.064937205152091 133.77852554715867 26.05788142583564 H 0.0 **** 0.06
20398 H 6.523041950736626 133.89792520406067 25.177457054067204 H 0.0 **** 0.06
20399 H 6.876565566853515 132.45743712006598 26.16321243589902 H 0.0 **** 0.06
20400 H 7.764266449855484 132.73718142572403 24.645912971480016 H 0.0 **** 0.06
20401 C 79.6500515344195 121.50110854280183 86.58994735627687 C 0.0 **** -0.24
20402 H 79.47323741128642 122.5453732953747 86.3300303666017 H 0.0 **** 0.06
20403 H 78.70025612962263 121.01985495530931 86.82560095811303 H 0.0 **** 0.06
20404 H 80.30809505142292 121.4493865024711 87.45694875505762 H 0.0 **** 0.06
20405 H 80.11744514100837 120.99171044777336 85.74743226476822 H 0.0 **** 0.06
20406 C 92.43801514491904 67.93098866544486 73.61580079809949 C 0.0 **** -0.24
20407 H 92.71774914395613 67.7371617529653 72.5808008618614 H 0.0 **** 0.06
20408 H 93.33102111268741 67.92074680354975 74.24151829443878 H 0.0 **** 0.06
20409 H 91.74647667249383 67.16054029967805 73.95719904781595 H 0.0 **** 0.06
20410 H 91.95654379260881 68.90766229142443 73.68481503590078 H 0.0 **** 0.06
20411 C 144.58283602469388 99.90893817866674 139.4332393768188 C 0.0 **** -0.24
20412 H 144.50036987550968 100.9392803389598 139.08865669954955 H 0.0 **** 0.06
20413 H 143.97533217434417 99.77538575291555 140.3287083861206 H 0.0 **** 0.06
20414 H 145.6244050904692 99.68543685741241 139.66355639023453 H 0.0 **** 0.06
20415 H 144.23074403733935 99.23477993601864 138.65205769566705 H 0.0 **** 0.06
20416 C 114.52467597140183 93.15953233890416 143.39320009616114 C 0.0 **** -0.24
20417 H 113.44599383799739 93.2940622631201 143.4643716533708 H 0.0 **** 0.06
20418 H 114.74246015328801 92.13938685973999 143.07332160300172 H 0.0 **** 0.06
20419 H 114.97856385695773 93.3387661780408 144.3672708659035 H 0.0 **** 0.06
20420 H 114.93181815433748 93.86247658379813 142.66742777371525 H 0.0 **** 0.06
20421 C 78.66949647246054 140.37518328370484 141.10799884008944 C 0.0 **** -0.24
20422 H 78.35394904130703 140.87624677754974 140.1918923134452 H 0.0 **** 0.06
20423 H 79.42556539366373 139.62730719416848 140.8711402493212 H 0.0 **** 0.06
20424 H 77.80969596928264 139.8906026647985 141.57063002684853 H 0.0 **** 0.06
20425 H 79.08733610676657 141.10978879875506 141.79706394216603 H 0.0 **** 0.06
20426 C 108.26844081096141 48.20623926363312 139.67303923271945 C 0.0 **** -0.24
20427 H 107.61805692887702 49.00098913406288 139.30887538468696 H 0.0 **** 0.06
20428 H 107.9290009301157 47.2487169793377 139.27649466800702 H 0.0 **** 0.06
20429 H 108.23523238405511 48.18041158833171 140.76307597920962 H 0.0 **** 0.06
20430 H 109.29103680265695 48.39397535252343 139.3457266998358 H 0.0 **** 0.06
20431 C 123.89817430051124 48.82457262287832 140.93474856990824 C 0.0 **** -0.24
20432 H 124.66609823578881 49.581505907261516 140.7685504230121 H 0.0 **** 0.06
20433 H 124.25190210612266 47.86205512947399 140.5649477854595 H 0.0 **** 0.06
20434 H 122.9896476043512 49.107536726846945 140.40327942880114 H 0.0 **** 0.06
20435 H 123.6876317145316 48.7493189187455 142.00131622933887 H 0.0 **** 0.06
20436 C 102.80646866628169 9.849715342625373 39.837914589651064 C 0.0 **** -0.24
20437 H 103.7565110630553 10.367061112083341 39.696677958024814 H 0.0 **** 0.06
20438 H 102.93061372911703 9.059994865714842 40.57955500910233 H 0.0 **** 0.06
20439 H 102.48744345632369 9.412485498057393 38.891359831456924 H 0.0 **** 0.06
20440 H 102.05418563767509 10.559022849081856 40.183276736055255 H 0.0 **** 0.06
20441 C 123.97930733297349 53.49172299274801 63.58281337621433 C 0.0 **** -0.24
20442 H 123.62261861558926 54.46017102005797 63.23181838616203 H 0.0 **** 0.06
20443 H 125.01141131524764 53.34740122085921 63.26314870983367 H 0.0 **** 0.06
20444 H 123.3545293011496 52.70255978911726 63.164690500876816 H 0.0 **** 0.06
20445 H 123.92692681550777 53.45836657324989 64.67097950367673 H 0.0 **** 0.06
20446 C 11.094386359299534 35.164668500301424 113.35615192801387 C 0.0 **** -0.24
20447 H 10.855101164398576 34.97578664599308 114.4030292710033 H 0.0 **** 0.06
20448 H 10.218017758740501 34.95795036504698 112.74070197275867 H 0.0 **** 0.06
20449 H 11.915303862444091 34.516558145721106 113.04880630603591 H 0.0 **** 0.06
20450 H 11.38803812610044 36.20676833942565 113.23255000881753 H 0.0 **** 0.06
20451 C 82.45061896769187 120.40609250567216 23.65940868325577 C 0.0 **** -0.24
20452 H 82.18319894922043 119.84145656392802 24.55290166457052 H 0.0 **** 0.06
20453 H 82.48080542809821 121.46847735468238 23.897587246476277 H 0.0 **** 0.06
20454 H 81.7074300131836 120.22777309785154 22.88187328937544 H 0.0 **** 0.06
20455 H 83.42977104987446 120.08400639348316 23.30584595085243 H 0.0 **** 0.06
20456 C 135.44939183906405 73.43258502256322 85.00122344663939 C 0.0 **** -0.24
20457 H 135.2524774508675 74.20697185368076 85.74236016806208 H 0.0 **** 0.06
20458 H 136.28453771047 73.7373329639239 84.36931994974806 H 0.0 **** 0.06
20459 H 134.5631168329818 73.28472639122548 84.38496758085839 H 0.0 **** 0.06
20460 H 135.69916244722125 72.5003080868423 85.50837163212441 H 0.0 **** 0.06
20461 C 113.80342252257795 89.1831522446759 81.97375159790754 C 0.0 **** -0.24
20462 H 113.93374356392916 90.1956223812108 81.59092191172368 H 0.0 **** 0.06
20463 H 114.62628889713396 88.94151868270872 82.64841014821161 H 0.0 **** 0.06
20464 H 113.79676381522101 88.47841478655099 81.14191405535222 H 0.0 **** 0.06
20465 H 112.85906977566252 89.11653805085635 82.51375004554107 H 0.0 **** 0.06
20466 C 90.52229288438778 127.20755157776475 64.98210782662133 C 0.0 **** -0.24
20467 H 90.74386521518434 126.14583756003128 65.09280093495157 H 0.0 **** 0.06
20468 H 90.29265630928143 127.63405110195939 65.9585765136191 H 0.0 **** 0.06
20469 H 89.66546989944717 127.33211798081715 64.32015958953657 H 0.0 **** 0.06
20470 H 91.38715457298056 127.71649047246582 64.5566147536423 H 0.0 **** 0.06
20471 C 10.588293360498447 90.27085445174177 130.94711403267686 C 0.0 **** -0.24
20472 H 11.151256110882507 89.97054177509692 130.06352242832642 H 0.0 **** 0.06
20473 H 11.271197956820586 90.390293638591 131.78859101741392 H 0.0 **** 0.06
20474 H 9.849437782422477 89.5040729874834 131.18434726451272 H 0.0 **** 0.06
20475 H 10.082070429768045 91.21579508867809 130.7518926254782 H 0.0 **** 0.06
20476 C 105.97007045720734 126.20601280158394 40.186322747937766 C 0.0 **** -0.24
20477 H 105.7424549304189 125.65004237182046 41.09553390419575 H 0.0 **** 0.06
20478 H 105.72999079933247 125.59351865004194 39.316797819163526 H 0.0 **** 0.06
20479 H 107.03064952856086 126.45866980068007 40.1716801895746 H 0.0 **** 0.06
20480 H 105.37837269553002 127.12144811532832 40.16195332729302 H 0.0 **** 0.06
20481 C 25.508395341899444 85.31601202338777 50.78886283103422 C 0.0 **** -0.24
20482 H 26.25149237955432 85.06373792079178 51.54523473615322 H 0.0 **** 0.06
20483 H 24.60988517716467 85.69747054932795 51.27536034881595 H 0.0 **** 0.06
20484 H 25.259134685324568 84.42492670663884 50.21300697629735 H 0.0 **** 0.06
20485 H 25.91304587251092 86.07817899180915 50.123238057579826 H 0.0 **** 0.06
20486 C 96.02445823637872 138.53660184096822 38.95538239547358 C 0.0 **** -0.24
20487 H 95.46325406235057 137.90985157906601 38.26201676392748 H 0.0 **** 0.06
20488 H 96.39165408900124 139.41858069248985 38.43051058978483 H 0.0 **** 0.06
20489 H 96.8680643775057 137.97257181336835 39.35397583267894 H 0.0 **** 0.06
20490 H 95.3740634414656 138.8440302657961 39.77433372207872 H 0.0 **** 0.06
20491 C 5.05011046330489 116.63807885167412 77.78421794746721 C 0.0 **** -0.24
20492 H 5.363694785054406 116.60677055861143 76.74110216772861 H 0.0 **** 0.06
20493 H 3.988862910874559 116.39847387917925 77.85171602795226 H 0.0 **** 0.06
20494 H 5.225131095329772 117.63579357575557 78.1858035183579 H 0.0 **** 0.06
20495 H 5.624594126231045 115.90940479460934 78.35719926351942 H 0.0 **** 0.06
20496 C 129.3160634175529 66.66762545671978 97.3770563136854 C 0.0 **** -0.24
20497 H 128.4494709227112 66.04900233927358 97.61238337231173 H 0.0 **** 0.06
20498 H 129.0054712198701 67.50187510648445 96.74763441440982 H 0.0 **** 0.06
20499 H 130.0569438828906 66.06898859010172 96.84791843231693 H 0.0 **** 0.06
20500 H 129.75017657096342 67.05019732742275 98.30020439651689 H 0.0 **** 0.06
20501 C 135.34367718899856 135.43713291363613 78.16796684533861 C 0.0 **** -0.24
20502 H 136.27806247006615 135.99720793695687 78.19895062325003 H 0.0 **** 0.06
20503 H 134.7691031577631 135.73921095179705 77.29176339732041 H 0.0 **** 0.06
20504 H 134.76721181097795 135.64139415053168 79.06991744672243 H 0.0 **** 0.06
20505 H 135.56134334734634 134.37034823555305 78.10903616954872 H 0.0 **** 0.06
20506 C 59.17637470158044 135.93930349200429 112.67599703614617 C 0.0 **** -0.24
20507 H 59.048791050893385 134.93492644672085 112.27047006961043 H 0.0 **** 0.06
20508 H 59.793440040057035 136.5278751331395 111.997615390966 H 0.0 **** 0.06
20509 H 59.6623767938671 135.8780129919124 113.64988324649404 H 0.0 **** 0.06
20510 H 58.20132223803418 136.41343055794508 112.78603836743552 H 0.0 **** 0.06
20511 C 17.602213099555776 59.13820071354657 138.84465776495304 C 0.0 **** -0.24
20512 H 17.52539249273857 58.6985780148169 137.85083921077657 H 0.0 **** 0.06
20513 H 18.648866780032336 59.346313940741524 139.07020138044692 H 0.0 **** 0.06
20514 H 17.202364240825645 58.441838424973994 139.581487007595 H 0.0 **** 0.06
20515 H 17.031532480999246 60.06722926308392 138.87568280963436 H 0.0 **** 0.06
20516 C 16.960223988433626 122.287999731961 116.93715284840563 C 0.0 **** -0.24
20517 H 16.71251183720537 122.97753578099335 116.13031977367778 H 0.0 **** 0.06
20518 H 17.56795105361232 122.80265776602678 117.68129585358683 H 0.0 **** 0.06
20519 H 17.518745066206122 121.44281382302619 116.53303164527723 H 0.0 **** 0.06
20520 H 16.04199190540669 121.92794151453846 117.40228924096961 H 0.0 **** 0.06
20521 C 105.43915107922145 134.86832875813303 11.046833772142008 C 0.0 **** -0.24
20522 H 104.57170909989279 135.46568531969896 11.327043397982152 H 0.0 **** 0.06
20523 H 105.32679282035939 133.8578352899217 11.440079853134023 H 0.0 **** 0.06
20524 H 106.34043002757717 135.32161492806205 11.461346578862447 H 0.0 **** 0.06
20525 H 105.51891405589005 134.83015185993938 9.961002646382894 H 0.0 **** 0.06
20526 C 47.268489524800856 25.634842786664592 138.19936536634142 C 0.0 **** -0.24
20527 H 47.75769529394414 24.95552593151075 137.50129715924996 H 0.0 **** 0.06
20528 H 47.92504685433761 25.81323885594344 139.05205774569376 H 0.0 **** 0.06
20529 H 46.3358806171064 25.18922384567003 138.5453946711838 H 0.0 **** 0.06
20530 H 47.05714178387707 26.57985533576965 137.6993480718709 H 0.0 **** 0.06
20531 C 27.135791942931547 122.83307127336997 13.671704161368325 C 0.0 **** -0.24
20532 H 26.692786257398637 123.35885419521713 14.517431760390991 H 0.0 **** 0.06
20533 H 28.087911403477364 122.39609171835531 13.974265457826618 H 0.0 **** 0.06
20534 H 27.301373561168646 123.53505433763155 12.854026699392733 H 0.0 **** 0.06
20535 H 26.461856825340362 122.0432941126503 13.341727898389763 H 0.0 **** 0.06
20536 C 64.92583407218731 76.28108630031362 135.11250910513857 C 0.0 **** -0.24
20537 H 64.8170086072964 76.64976941840447 134.09234701485147 H 0.0 **** 0.06
20538 H 65.04119749368033 75.19682266969555 135.09549129674255 H 0.0 **** 0.06
20539 H 64.04023961042688 76.54427461454291 135.6898826451563 H 0.0 **** 0.06
20540 H 65.80615452958358 76.73260491154375 135.56955146177884 H 0.0 **** 0.06
20541 C 63.750635659512795 145.00159854663076 24.860334778256323 C 0.0 **** -0.24
20542 H 64.24259973469947 144.39151032923056 25.618958323851814 H 0.0 **** 0.06
20543 H 63.51253657402924 145.97889957731735 25.27979681735372 H 0.0 **** 0.06
20544 H 62.83345041084675 144.50916013430668 24.537626681445012 H 0.0 **** 0.06
20545 H 64.41758832240049 145.12429735741014 24.006149724922437 H 0.0 **** 0.06
20546 C 91.41193273795895 107.77228395294631 74.76926191285865 C 0.0 **** -0.24
20547 H 91.20213162197837 106.97517059746977 74.05582256732008 H 0.0 **** 0.06
20548 H 92.22200864004168 107.46339987974031 75.43122160480746 H 0.0 **** 0.06
20549 H 90.51788492834737 107.9754892432662 75.35956697210958 H 0.0 **** 0.06
20550 H 91.70484823949482 108.67330947807139 74.2315060641819 H 0.0 **** 0.06
20551 C 10.31539242699398 113.52964929318905 117.97589109925536 C 0.0 **** -0.24
20552 H 10.81289917926128 113.34338435962844 118.927189823091 H 0.0 **** 0.06
20553 H 10.598832081047533 112.7569878230188 117.260958845409 H 0.0 **** 0.06
20554 H 10.615921537847981 114.50557323412296 117.59352524245963 H 0.0 **** 0.06
20555 H 9.23578083059354 113.51378990677391 118.12078112849025 H 0.0 **** 0.06
20556 C 49.338474703353455 56.82477713702184 85.95450891447106 C 0.0 **** -0.24
20557 H 50.23244510731544 56.291060804999574 85.63395683934841 H 0.0 **** 0.06
20558 H 48.93470046452663 56.3513256656388 86.8496390613338 H 0.0 **** 0.06
20559 H 48.59338867684815 56.794893339311 85.16021953554579 H 0.0 **** 0.06
20560 H 49.59307928483278 57.86104123462668 86.17535975707362 H 0.0 **** 0.06
20561 C 70.40412711638399 71.10215316647202 104.51626169616031 C 0.0 **** -0.24
20562 H 70.64831852583504 71.71630909306792 103.6487710595533 H 0.0 **** 0.06
20563 H 69.72246545822516 71.65003234576366 105.16766305571184 H 0.0 **** 0.06
20564 H 71.31769601181875 70.86516989280138 105.06169153099694 H 0.0 **** 0.06
20565 H 69.92861192076408 70.17978346147419 104.18571028268019 H 0.0 **** 0.06
20566 C 88.31517639705993 48.80206476421097 55.109887890539056 C 0.0 **** -0.24
20567 H 88.30277199616756 48.22047462954137 54.188343576610094 H 0.0 **** 0.06
20568 H 87.8882175451228 48.20871006463173 55.91927673131667 H 0.0 **** 0.06
20569 H 87.7251459880012 49.708675933978924 54.97380989355074 H 0.0 **** 0.06
20570 H 89.34200136275088 49.069709472089755 55.3571582988416 H 0.0 **** 0.06
20571 C 110.52377778799729 32.54995335218129 118.6881659813261 C 0.0 **** -0.24
20572 H 109.91359369185449 33.45361510607364 118.66415013032089 H 0.0 **** 0.06
20573 H 110.8049608426187 32.32911450909805 119.71816268951689 H 0.0 **** 0.06
20574 H 111.42248253283407 32.703085335588725 118.09037145969383 H 0.0 **** 0.06
20575 H 109.95302718250718 31.715962909779506 118.27976717621063 H 0.0 **** 0.06
20576 C 79.54618465796402 2.492231976922767 53.44149430227718 C 0.0 **** -0.24
20577 H 78.56516843331035 2.8994444796190635 53.194249291581656 H 0.0 **** 0.06
20578 H 79.49747822512235 1.402729067461479 53.43802344916209 H 0.0 **** 0.06
20579 H 79.84485556052113 2.839721282167943 54.43044969360781 H 0.0 **** 0.06
20580 H 80.27515154901602 2.826226944626569 52.703193871092466 H 0.0 **** 0.06
20581 C 10.08086997189372 129.50872349060458 43.0389186271683 C 0.0 **** -0.24
20582 H 10.24472684966662 128.81875323321233 42.21118626606997 H 0.0 **** 0.06
20583 H 9.083191390790319 129.35246802041493 43.44926430567364 H 0.0 **** 0.06
20584 H 10.171596258303964 130.53433380813092 42.68126780521061 H 0.0 **** 0.06
20585 H 10.825290211928035 129.3275093802065 43.81490373961144 H 0.0 **** 0.06
20586 C 71.2034082679136 47.350625980579466 12.97411168389118 C 0.0 **** -0.24
20587 H 71.5907157577123 48.23934793320119 13.473393307797608 H 0.0 **** 0.06
20588 H 70.68387465679513 47.64356135625599 12.061760551162365 H 0.0 **** 0.06
20589 H 70.50905982956277 46.83509637050055 13.63834914698441 H 0.0 **** 0.06
20590 H 72.0293331009174 46.685075530057176 12.725004029519312 H 0.0 **** 0.06
20591 C 11.032321493700692 138.43117022331552 52.06763801428892 C 0.0 **** -0.24
20592 H 11.07778192681738 139.52031427331195 52.08592754975852 H 0.0 **** 0.06
20593 H 10.063229794727334 138.11495019243327 51.68136339962096 H 0.0 **** 0.06
20594 H 11.163865605454106 138.04616631792226 53.079441397989584 H 0.0 **** 0.06
20595 H 11.823943339834983 138.04496431502233 51.42623743214092 H 0.0 **** 0.06
20596 C 55.19389907518334 132.91984854648166 63.15842306500659 C 0.0 **** -0.24
20597 H 55.15269516685282 133.47071659649612 64.09785720735925 H 0.0 **** 0.06
20598 H 54.20249645575166 132.8992812760416 62.70543217382837 H 0.0 **** 0.06
20599 H 55.52663906800126 131.90003858713516 63.350435091559845 H 0.0 **** 0.06
20600 H 55.89352026811156 133.40853614714757 62.480482431573236 H 0.0 **** 0.06
20601 C 108.82899423353001 80.08704785832305 14.810165975755922 C 0.0 **** -0.24
20602 H 108.36260121392036 79.1031756103497 14.762902539201832 H 0.0 **** 0.06
20603 H 109.7551795911952 80.07862144777584 14.235058508657517 H 0.0 **** 0.06
20604 H 109.04778314122473 80.33527456484026 15.848818381710316 H 0.0 **** 0.06
20605 H 108.14957707832559 80.8316506358232 14.39402419946532 H 0.0 **** 0.06
20606 C 18.498790952217682 22.92392296105099 8.753099914821718 C 0.0 **** -0.24
20607 H 17.633646465736078 22.27767382127024 8.904387728334257 H 0.0 **** 0.06
20608 H 19.014953870699053 22.6321615760203 7.838674950379755 H 0.0 **** 0.06
20609 H 19.176026258227772 22.82812480995355 9.601182992039924 H 0.0 **** 0.06
20610 H 18.167130405551234 23.959268652354325 8.668332454228505 H 0.0 **** 0.06
20611 C 39.961366706606555 1.9872879210290648 2.0577760949684567 C 0.0 **** -0.24
20612 H 39.31456428173277 1.7851214606434098 1.2041343467396644 H 0.0 **** 0.06
20613 H 40.17898638485997 3.055181127970684 2.1030060052095614 H 0.0 **** 0.06
20614 H 40.891591368569095 1.4304709571838998 1.9483466195902963 H 0.0 **** 0.06
20615 H 39.45892475507969 1.679782285007974 2.974583730838784 H 0.0 **** 0.06
20616 C 46.33124966817644 22.098921485228942 86.57624732931734 C 0.0 **** -0.24
20617 H 46.82314781295395 23.0702993638931 86.54179347171768 H 0.0 **** 0.06
20618 H 45.58087359321485 22.044436576226104 85.7869659622759 H 0.0 **** 0.06
20619 H 45.848597444562984 21.96989970235458 87.54559203385648 H 0.0 **** 0.06
20620 H 47.07009086151491 21.311903850057774 86.43081777092632 H 0.0 **** 0.06
20621 C 0.8309484860285288 113.59651381902408 143.80804275326437 C 0.0 **** -0.24
20622 H 0.3656825650776625 114.48258074618836 144.2417580855047 H 0.0 **** 0.06
20623 H 0.0947185413784446 113.05246562102037 143.21598874992813 H 0.0 **** 0.06
20624 H 1.2025552113117364 112.95421733461113 144.6070468867878 H 0.0 **** 0.06
20625 H 1.660942240147584 113.89845079344833 143.16887270586375 H 0.0 **** 0.06
20626 C 6.195729056890286 0.18834769980890087 111.76890958349975 C 0.0 **** -0.24
20627 H 5.675604237608269 0.5537058015330736 112.65589359815289 H 0.0 **** 0.06
20628 H 6.991646361823086 0.8838572606617809 111.50361735055998 H 0.0 **** 0.06
20629 H 5.489332339500578 0.10889717773128282 110.94226805761014 H 0.0 **** 0.06
20630 H 6.623322124327615 -0.7926124250513347 111.97742653768626 H 0.0 **** 0.06
20631 C 46.738966770636324 19.52078128307867 69.33497077384696 C 0.0 **** -0.24
20632 H 47.59319131695746 19.06802450201851 69.83766112266423 H 0.0 **** 0.06
20633 H 47.032753685352404 19.83903580496216 68.33382878481628 H 0.0 **** 0.06
20634 H 46.39781705664912 20.384778272799366 69.90481193467136 H 0.0 **** 0.06
20635 H 45.93144803642751 18.7913841662289 69.26233268333216 H 0.0 **** 0.06
20636 C 7.255787950216238 139.2296005652168 52.04917263366353 C 0.0 **** -0.24
20637 H 7.995493279929146 139.78773739467601 52.62383534938786 H 0.0 **** 0.06
20638 H 6.257538390679851 139.5908726250616 52.29542492859103 H 0.0 **** 0.06
20639 H 7.330526320133224 138.17014265473836 52.293778435337245 H 0.0 **** 0.06
20640 H 7.442127818720401 139.3711410406721 50.98424743672783 H 0.0 **** 0.06
20641 C 121.56565720526984 100.29725832660007 97.13453800981065 C 0.0 **** -0.24
20642 H 122.64698591350779 100.20076522591258 97.23356939495568 H 0.0 **** 0.06
20643 H 121.33491842518097 100.94461848567965 96.2875637450444 H 0.0 **** 0.06
20644 H 121.15334071984748 100.72939553949136 98.0462849255398 H 0.0 **** 0.06
20645 H 121.12709877428105 99.31246786841714 96.96941923553143 H 0.0 **** 0.06
20646 C 103.03835677454569 71.34081593999744 97.73231771319227 C 0.0 **** -0.24
20647 H 103.02018379798841 70.3294974915552 97.32725278680796 H 0.0 **** 0.06
20648 H 102.14706820140663 71.50600728669696 98.33743454799641 H 0.0 **** 0.06
20649 H 103.06125712673659 72.05978302695752 96.91388459934484 H 0.0 **** 0.06
20650 H 103.92694199792459 71.46769458448694 98.35160686599203 H 0.0 **** 0.06
20651 C 31.645564104964954 56.21731062841812 26.56795347587692 C 0.0 **** -0.24
20652 H 31.86615385566816 55.79594899342763 27.548575940840024 H 0.0 **** 0.06
20653 H 31.26278274948561 57.231154261874224 26.686120428306083 H 0.0 **** 0.06
20654 H 30.896202070860532 55.602071758628284 26.06958154049157 H 0.0 **** 0.06
20655 H 32.55552834313536 56.238654937242046 25.968752026212144 H 0.0 **** 0.06
20656 C 16.529034252520006 84.32707169312653 52.224000504666805 C 0.0 **** -0.24
20657 H 17.15979984879465 85.2120026098173 52.30876449391184 H 0.0 **** 0.06
20658 H 16.10180247277384 84.09219849724424 53.19934891612303 H 0.0 **** 0.06
20659 H 17.12951790333304 83.48579572283754 51.87777366058651 H 0.0 **** 0.06
20660 H 15.726929874688977 84.51983310930943 51.51183515680955 H 0.0 **** 0.06
20661 C 79.61904042447685 114.61647537185833 41.21899339205842 C 0.0 **** -0.24
20662 H 80.22669824899162 113.82142644966122 40.78736617279492 H 0.0 **** 0.06
20663 H 79.53471532483826 115.43759985304045 40.506256543780836 H 0.0 **** 0.06
20664 H 80.08855756947884 114.9761271887598 42.13499511173168 H 0.0 **** 0.06
20665 H 78.62507310849497 114.23052299456766 41.44865989467948 H 0.0 **** 0.06
20666 C 0.5447165206832949 106.22608399861421 107.92106573917054 C 0.0 **** -0.24
20667 H 0.868310773093043 107.24263009416684 107.69936852743133 H 0.0 **** 0.06
20668 H -0.5130087093900215 106.23114904154393 108.18654197375501 H 0.0 **** 0.06
20669 H 1.1265700179200167 105.83269322096474 108.75494590133646 H 0.0 **** 0.06
20670 H 0.6961292599772833 105.59736496371322 107.04346647601504 H 0.0 **** 0.06
20671 C 5.30543349088407 0.42054083557565036 5.818207654619869 C 0.0 **** -0.24
20672 H 5.170621483539378 -0.5850442779745322 6.218029174663457 H 0.0 **** 0.06
20673 H 4.820389392770608 1.1413128492390285 6.477438174831832 H 0.0 **** 0.06
20674 H 4.858989191927094 0.47918714315389366 4.82539094969718 H 0.0 **** 0.06
20675 H 6.369908496680807 0.6454367138614998 5.752202353718644 H 0.0 **** 0.06
20676 C 123.83029214384621 100.77202832472986 25.253353888011418 C 0.0 **** -0.24
20677 H 123.25423460080927 100.36031805219983 26.082227984090025 H 0.0 **** 0.06
20678 H 123.30950269223828 101.63847793812063 24.845053342348706 H 0.0 **** 0.06
20679 H 123.94316463565062 100.01550382772527 24.477538618439894 H 0.0 **** 0.06
20680 H 124.8146261891807 101.0738188949818 25.611401146213154 H 0.0 **** 0.06
20681 C 86.61603653978672 135.01305486185802 15.330978871527009 C 0.0 **** -0.24
20682 H 85.58649418511247 134.67209049533352 15.44281698747551 H 0.0 **** 0.06
20683 H 86.95967300948094 134.8027080450576 14.317748824821592 H 0.0 **** 0.06
20684 H 87.25056406282297 134.49132121333867 16.046424646838886 H 0.0 **** 0.06
20685 H 86.66390334563253 136.08626863778642 15.516124402506989 H 0.0 **** 0.06
20686 C 108.06018886358342 124.49926294054205 63.48667473240846 C 0.0 **** -0.24
20687 H 107.18151685451616 123.91059071310484 63.22684148079084 H 0.0 **** 0.06
20688 H 108.95815085811509 123.9792048561952 63.151501960695924 H 0.0 **** 0.06
20689 H 108.1004080432455 124.63517073801762 64.56752828153873 H 0.0 **** 0.06
20690 H 108.00208118696074 125.47294225716514 63.00027779709404 H 0.0 **** 0.06
20691 C 2.9438733455780515 143.75476711590716 0.9303124870747865 C 0.0 **** -0.24
20692 H 3.3684940327230777 143.88840278246204 1.9251917110321415 H 0.0 **** 0.06
20693 H 3.736005717081678 143.82461752094596 0.18493398165179542 H 0.0 **** 0.06
20694 H 2.200373280093512 144.53125920572813 0.7455676349201781 H 0.0 **** 0.06
20695 H 2.468679449432951 142.77551335113722 0.8668636812178079 H 0.0 **** 0.06
20696 C 24.919934057197764 97.72605627930017 71.49323345684662 C 0.0 **** -0.24
20697 H 25.358123191578734 98.71363780701063 71.34414969374131 H 0.0 **** 0.06
20698 H 24.08655497559279 97.59200412300373 70.80303185177534 H 0.0 **** 0.06
20699 H 24.561626902569778 97.63818033665399 72.51859908476834 H 0.0 **** 0.06
20700 H 25.67467498368898 96.9627804284849 71.30474475544497 H 0.0 **** 0.06
20701 C 65.44756585181024 102.25494388992982 56.517494127334345 C 0.0 **** -0.24
20702 H 66.32451968428623 101.76807275846684 56.08997289180277 H 0.0 **** 0.06
20703 H 64.73777282910152 101.49749839890086 56.85002245630585 H 0.0 **** 0.06
20704 H 64.97909993645487 102.88545070159617 55.76159879396559 H 0.0 **** 0.06
20705 H 65.7500181697 102.86785583420269 57.366413103014565 H 0.0 **** 0.06
20706 C 71.76773719335779 10.671512111985976 3.3558470050332403 C 0.0 **** -0.24
20707 H 71.34702862811943 10.268667514029573 4.2766332923150685 H 0.0 **** 0.06
20708 H 72.69115987502158 11.205263561236421 3.5822225123545763 H 0.0 **** 0.06
20709 H 71.05361012091424 11.356352656639359 2.8993671952865725 H 0.0 **** 0.06
20710 H 71.9796217898155 9.854884119849572 2.665211381040649 H 0.0 **** 0.06
20711 C 98.34548322509482 129.06414517286856 28.094586330690603 C 0.0 **** -0.24
20712 H 98.35743260726268 130.14739572091267 28.21416621558872 H 0.0 **** 0.06
20713 H 99.33797726038759 128.72020142417693 27.801253345610895 H 0.0 **** 0.06
20714 H 97.62430815926793 128.7922592187723 27.323410944607886 H 0.0 **** 0.06
20715 H 98.06254047738518 128.59734302604917 29.037640952217018 H 0.0 **** 0.06
20716 C 107.22772329277333 74.71994999887397 2.6463230499745514 C 0.0 **** -0.24
20717 H 106.82946375824778 74.31688827315119 3.5767806948264713 H 0.0 **** 0.06
20718 H 107.65396578709593 73.91083250833391 2.0528189297390753 H 0.0 **** 0.06
20719 H 108.00110370212181 75.45399355152 2.8702329798771835 H 0.0 **** 0.06
20720 H 106.42539724794275 75.19907874857293 2.084416922637832 H 0.0 **** 0.06
20721 C 98.41371307369491 12.270268402893869 96.81963221331966 C 0.0 **** -0.24
20722 H 97.33036568785802 12.164575376997163 96.88016599448326 H 0.0 **** 0.06
20723 H 98.71746932605198 13.192407295109767 97.31378385187276 H 0.0 **** 0.06
20724 H 98.71739374503251 12.300380146425148 95.77267935916248 H 0.0 **** 0.06
20725 H 98.88854532598978 11.420503652711496 97.31115652018019 H 0.0 **** 0.06
20726 C 69.71544617239914 112.20793478511649 58.236189111210805 C 0.0 **** -0.24
20727 H 69.13817191740762 111.48245793237436 58.809278687407144 H 0.0 **** 0.06
20728 H 69.0686167334789 113.03330603960887 57.93900253884759 H 0.0 **** 0.06
20729 H 70.12253962065643 111.72675373704072 57.346863174144275 H 0.0 **** 0.06
20730 H 70.53211113824807 112.58828901889677 58.849718966766815 H 0.0 **** 0.06
20731 C 29.62456091363041 57.111716521912456 63.703829757201845 C 0.0 **** -0.24
20732 H 29.841008263115143 56.26465657947517 64.3549755980852 H 0.0 **** 0.06
20733 H 28.830908873324155 57.71556171317104 64.14503760762315 H 0.0 **** 0.06
20734 H 29.304830749537985 56.74708712812634 62.728087533681034 H 0.0 **** 0.06
20735 H 30.522575442675013 57.71896194913117 63.587908164911184 H 0.0 **** 0.06
20736 C 122.62048677764851 136.0238627631945 3.9977851158014914 C 0.0 **** -0.24
20737 H 121.57302772660383 135.7260401025883 4.045135892044584 H 0.0 **** 0.06
20738 H 122.69174415003666 137.03655615986267 3.6014868075695006 H 0.0 **** 0.06
20739 H 123.16344367275008 135.3386804090873 3.3461380611308016 H 0.0 **** 0.06
20740 H 123.05280362356575 135.99380158834677 4.998380641389673 H 0.0 **** 0.06
20741 C 76.02535023035705 81.5342653249993 95.23533122701939 C 0.0 **** -0.24
20742 H 75.52048298997451 82.03825143850412 96.05889052755315 H 0.0 **** 0.06
20743 H 76.63373120975054 80.71852338069834 95.62753731672098 H 0.0 **** 0.06
20744 H 76.66548371788176 82.24570682724584 94.71263241459098 H 0.0 **** 0.06
20745 H 75.28366179349298 81.13621372124535 94.54384368655309 H 0.0 **** 0.06
20746 C 42.11702825986221 54.68526957977423 71.04126062687882 C 0.0 **** -0.24
20747 H 42.34786493927068 54.63032848780867 69.97674530937856 H 0.0 **** 0.06
20748 H 41.90331202626899 53.68538432484547 71.41748489018948 H 0.0 **** 0.06
20749 H 41.246887273972604 55.325070079637925 71.1902368225449 H 0.0 **** 0.06
20750 H 42.969950950009334 55.102278820094455 71.57669509799825 H 0.0 **** 0.06
20751 C 14.52425971048524 93.77578628545197 0.0769554135081627 C 0.0 **** -0.24
20752 H 13.783608662843193 94.03975811219127 0.8315704005558899 H 0.0 **** 0.06
20753 H 14.546382490146073 92.69302443522183 -0.04780944129167963 H 0.0 **** 0.06
20754 H 15.506990741210956 94.12538121736168 0.3931341515986304 H 0.0 **** 0.06
20755 H 14.25994836799228 94.2450752857317 -0.8715187898723187 H 0.0 **** 0.06
20756 C 22.96263650901836 107.35519510825085 118.76446647969705 C 0.0 **** -0.24
20757 H 22.362995558742305 107.23440437829302 117.86217260567462 H 0.0 **** 0.06
20758 H 22.844576469279957 108.36973903610263 119.1455955380663 H 0.0 **** 0.06
20759 H 24.011949682973906 107.17431647726985 118.5302385914462 H 0.0 **** 0.06
20760 H 22.630696491707972 106.64161759710711 119.51922796385092 H 0.0 **** 0.06
20761 C 34.81937649304019 57.24151606905116 1.8110849555559518 C 0.0 **** -0.24
20762 H 34.27506917339694 58.171123002568905 1.6440238944684964 H 0.0 **** 0.06
20763 H 34.589124480147206 56.86063022866409 2.806427566878188 H 0.0 **** 0.06
20764 H 35.889597924522946 57.42807851586484 1.7316030876369553 H 0.0 **** 0.06
20765 H 34.52140239046304 56.50689367127603 1.0627519555046518 H 0.0 **** 0.06
20766 C 1.055306205373853 88.60682816149657 33.58881179167165 C 0.0 **** -0.24
20767 H 0.6747995068049306 87.58533602009483 33.56453453462686 H 0.0 **** 0.06
20768 H 0.5605505261689814 89.19632416969321 32.81724899539232 H 0.0 **** 0.06
20769 H 2.1302906715671384 88.5973323726484 33.407009284956814 H 0.0 **** 0.06
20770 H 0.8565732679364828 89.04490191357972 34.56703595488866 H 0.0 **** 0.06
20771 C 121.18304181413198 51.43183262902993 70.59944620831315 C 0.0 **** -0.24
20772 H 120.2471403230927 51.704491846479385 71.08588448096867 H 0.0 **** 0.06
20773 H 121.47399438715969 52.220683594952305 69.90446222965546 H 0.0 **** 0.06
20774 H 121.05012144032303 50.49805846509837 70.05326686671161 H 0.0 **** 0.06
20775 H 121.96063413573442 51.30561066289262 71.35254917438272 H 0.0 **** 0.06
20776 C 112.33421813132995 51.459322837811015 84.6582724553005 C 0.0 **** -0.24
20777 H 112.56979753872875 50.613773741904964 85.3052121774279 H 0.0 **** 0.06
20778 H 111.31128920974001 51.78484929586759 84.84601382226123 H 0.0 **** 0.06
20779 H 112.43359121170565 51.15684805044154 83.61522502433263 H 0.0 **** 0.06
20780 H 113.02147342639492 52.27896620516921 84.86606025956763 H 0.0 **** 0.06
20781 C 44.842159048929744 122.50983264175665 63.800319020068926 C 0.0 **** -0.24
20782 H 45.40832021447643 122.82068266346067 62.922152916464 H 0.0 **** 0.06
20783 H 44.977291800010235 121.4400165437284 63.95824791299715 H 0.0 **** 0.06
20784 H 43.78504395962925 122.72555684457706 63.6454879885342 H 0.0 **** 0.06
20785 H 45.200209085597976 123.05509521917361 64.67399105259351 H 0.0 **** 0.06
20786 C 126.88678486984544 88.47984488151343 96.54738940334626 C 0.0 **** -0.24
20787 H 126.17362095815788 89.28294315185519 96.73727454288034 H 0.0 **** 0.06
20788 H 126.51371924546365 87.55300449090151 96.98228225622411 H 0.0 **** 0.06
20789 H 127.84691052994995 88.73305570153633 96.99792234366309 H 0.0 **** 0.06
20790 H 127.01234357937703 88.35274108552471 95.4724105637342 H 0.0 **** 0.06
20791 C 99.70062818897547 37.77611300043767 63.566352203848425 C 0.0 **** -0.24
20792 H 99.34762909782322 38.74741324125007 63.91360197369107 H 0.0 **** 0.06
20793 H 99.68995551761822 37.75454779881987 62.47619901628124 H 0.0 **** 0.06
20794 H 99.04861020467285 36.993345034790444 63.952905848855465 H 0.0 **** 0.06
20795 H 100.7175501800776 37.61115654095352 63.92336474891832 H 0.0 **** 0.06
20796 C 87.44537812384912 97.2885642583232 107.54652909488185 C 0.0 **** -0.24
20797 H 87.84647617271864 96.37390723185277 107.10907874597176 H 0.0 **** 0.06
20798 H 88.18895184162025 97.72880369725597 108.21120140250731 H 0.0 **** 0.06
20799 H 86.54410156013185 97.05464864726999 108.11271803548625 H 0.0 **** 0.06
20800 H 87.2031494496228 97.99500835202564 106.75285227841631 H 0.0 **** 0.06
20801 C 51.206195321593626 120.19259563170586 31.939873534289532 C 0.0 **** -0.24
20802 H 50.853375547554066 120.20053300407845 30.908353722379573 H 0.0 **** 0.06
20803 H 51.612114459250876 119.20890395795861 32.17666301461504 H 0.0 **** 0.06
20804 H 50.37485654139367 120.4143698171679 32.610268202393385 H 0.0 **** 0.06
20805 H 51.98361290080214 120.94667175413444 32.06364758423579 H 0.0 **** 0.06
20806 C 92.27365012033314 91.0290551726955 37.39921344814715 C 0.0 **** -0.24
20807 H 92.80660538435578 91.89934971064957 37.01661184251961 H 0.0 **** 0.06
20808 H 91.66553637316147 90.59770665976788 36.60334531942262 H 0.0 **** 0.06
20809 H 91.63099523192454 91.33117196263805 38.22617961327745 H 0.0 **** 0.06
20810 H 92.99233813682864 90.28799683778827 37.74922198987527 H 0.0 **** 0.06
20811 C 51.46252526580142 98.92291303056695 51.632744366391165 C 0.0 **** -0.24
20812 H 51.88138941346635 99.81572515907908 51.16888963828468 H 0.0 **** 0.06
20813 H 51.18643215285671 98.20698092527954 50.85898685712732 H 0.0 **** 0.06
20814 H 50.57767823225788 99.194847468673 52.209580003531 H 0.0 **** 0.06
20815 H 52.2033853101935 98.47502774885638 52.29515139554171 H 0.0 **** 0.06
20816 C 8.32922566370521 98.39174399261603 38.02146523364371 C 0.0 **** -0.24
20817 H 8.513337011062099 97.87816179880136 38.96495780225115 H 0.0 **** 0.06
20818 H 7.255469331657782 98.50419404601854 37.87198207627759 H 0.0 **** 0.06
20819 H 8.751520325352136 97.80878456622014 37.202389251715346 H 0.0 **** 0.06
20820 H 8.798642701125914 99.37501671811421 38.046290124785514 H 0.0 **** 0.06
20821 C 73.43797834605452 77.28581193354098 134.5374575461599 C 0.0 **** -0.24
20822 H 73.15308691075276 77.8020754736719 133.6206556435384 H 0.0 **** 0.06
20823 H 74.02419088599795 76.40034401419916 134.28911227482033 H 0.0 **** 0.06
20824 H 72.54096830284168 76.98786585282113 135.08055424355993 H 0.0 **** 0.06
20825 H 74.03456353594558 77.9533513767425 135.1597212579632 H 0.0 **** 0.06
20826 C 52.037882048960626 122.7830200826535 125.03216649910432 C 0.0 **** -0.24
20827 H 50.99507352040709 123.08383352701141 125.13317908554939 H 0.0 **** 0.06
20828 H 52.407905316676676 122.42936290110971 125.99478911409415 H 0.0 **** 0.06
20829 H 52.63202726232785 123.63629548777233 124.70618427245066 H 0.0 **** 0.06
20830 H 52.11547124163366 121.98326100184188 124.29607669593469 H 0.0 **** 0.06
20831 C 85.74930265411575 71.79859767012356 128.6793759906401 C 0.0 **** -0.24
20832 H 85.78155714430673 72.12256163536759 129.7192287965162 H 0.0 **** 0.06
20833 H 86.71498417436155 71.37466407057227 128.4010138652638 H 0.0 **** 0.06
20834 H 85.52927651426236 72.65342098887626 128.039388869825 H 0.0 **** 0.06
20835 H 84.97198722437551 71.04396210494305 128.55709841044361 H 0.0 **** 0.06
20836 C 26.926284987510954 16.394124680797887 85.7340346517548 C 0.0 **** -0.24
20837 H 26.490274681446635 16.74716179348834 84.79981536248806 H 0.0 **** 0.06
20838 H 26.2495995031977 15.678002045539039 86.2016777643791 H 0.0 **** 0.06
20839 H 27.082258883618266 17.238499380447273 86.4040557892854 H 0.0 **** 0.06
20840 H 27.881381228528625 15.910637008102768 85.52935508093819 H 0.0 **** 0.06
20841 C 96.48186253707787 18.97532221881611 126.47961971858119 C 0.0 **** -0.24
20842 H 97.13934755501096 18.203376107817284 126.87929651519744 H 0.0 **** 0.06
20843 H 95.90726293472149 19.419531001970263 127.29263310514031 H 0.0 **** 0.06
20844 H 95.80059818270006 18.53109607045232 125.75349098894266 H 0.0 **** 0.06
20845 H 97.07971022101742 19.745114772033325 125.99298699058195 H 0.0 **** 0.06
20846 C 132.62991244295782 29.08900637326574 133.2547288085834 C 0.0 **** -0.24
20847 H 133.36370083825997 29.785117248483537 133.66103674196378 H 0.0 **** 0.06
20848 H 131.80426818715577 28.98117686275777 133.95793734345995 H 0.0 **** 0.06
20849 H 133.09942887313568 28.119360096965934 133.0935045741773 H 0.0 **** 0.06
20850 H 132.25188890166683 29.472782489846537 132.30667025013545 H 0.0 **** 0.06
20851 C 133.6239778348687 113.57506605929662 80.67693077895058 C 0.0 **** -0.24
20852 H 133.2260595727452 112.58229328042505 80.88885575443493 H 0.0 **** 0.06
20853 H 133.32339549922372 113.88042988965036 79.67511590137957 H 0.0 **** 0.06
20854 H 134.71154277284253 113.55176968233805 80.73990415541425 H 0.0 **** 0.06
20855 H 133.2333649578763 114.28589136723359 81.40621119701689 H 0.0 **** 0.06
20856 C 0.23409139365983833 68.36770414819176 123.51152418899468 C 0.0 **** -0.24
20857 H 0.1323211839100793 68.71610793443199 124.53927100526357 H 0.0 **** 0.06
20858 H 0.37115264131088566 67.28618472208274 123.50684885152839 H 0.0 **** 0.06
20859 H 1.0975847393603146 68.84617207988344 123.04962206936818 H 0.0 **** 0.06
20860 H -0.6656649699573904 68.62217067515223 122.95136602494333 H 0.0 **** 0.06
20861 C 24.205355325884256 88.49135903850784 63.283761352284614 C 0.0 **** -0.24
20862 H 23.462952922482856 89.07049477584548 62.73510267603399 H 0.0 **** 0.06
20863 H 24.36496785029871 87.53702510228013 62.78196610182425 H 0.0 **** 0.06
20864 H 23.849255607131965 88.31282576161604 64.29870853622862 H 0.0 **** 0.06
20865 H 25.143770986797108 89.04560633775374 63.31998178526476 H 0.0 **** 0.06
20866 C 47.1356969459637 64.37048910751264 61.56538007300139 C 0.0 **** -0.24
20867 H 47.120507639430826 64.62594834521968 60.506299000868296 H 0.0 **** 0.06
20868 H 46.113379179005875 64.2540517441926 61.926673124694105 H 0.0 **** 0.06
20869 H 47.630534781272985 65.16401282924252 62.124051222360436 H 0.0 **** 0.06
20870 H 47.67874853592039 63.43557050639393 61.704969084394406 H 0.0 **** 0.06
20871 C 32.77912683689823 137.9116703374489 107.499756260226 C 0.0 **** -0.24
20872 H 31.993251938577714 137.16076552704132 107.40970310761581 H 0.0 **** 0.06
20873 H 32.82090479088532 138.5050301217142 106.58578869432996 H 0.0 **** 0.06
20874 H 33.737733760542824 137.4162198373419 107.65667822975139 H 0.0 **** 0.06
20875 H 32.563488077157785 138.562770989205 108.34648687362368 H 0.0 **** 0.06
20876 C 117.14457271709996 29.479945368767574 100.86742234700041 C 0.0 **** -0.24
20877 H 117.06099186257585 30.255482217906803 100.10522697255057 H 0.0 **** 0.06
20878 H 117.85386747595437 28.72120461871657 100.53815304005616 H 0.0 **** 0.06
20879 H 116.16851035641965 29.02214013162896 101.02704225322881 H 0.0 **** 0.06
20880 H 117.49349564164062 29.92433092070337 101.80002097883855 H 0.0 **** 0.06
20881 C 61.25417278267861 67.03200456911935 20.324578664307957 C 0.0 **** -0.24
20882 H 61.201271291763476 66.51395757326843 19.366318419417887 H 0.0 **** 0.06
20883 H 61.13854044014994 68.10350062701063 20.164134851620815 H 0.0 **** 0.06
20884 H 62.220280635526535 66.83532216165102 20.789573880365552 H 0.0 **** 0.06
20885 H 60.45735007016572 66.6727441352524 20.975091047572178 H 0.0 **** 0.06
20886 C 1.4330352062030975 63.95801899638586 64.2465032903797 C 0.0 **** -0.24
20887 H 1.405819071944844 65.04257907854769 64.14255333043778 H 0.0 **** 0.06
20888 H 0.5593440294659118 63.52402446249569 63.76162257139404 H 0.0 **** 0.06
20889 H 1.4306920578601243 63.6950078700379 65.3047303897282 H 0.0 **** 0.06
20890 H 2.3384536949305996 63.570980639805825 63.77812352487632 H 0.0 **** 0.06
20891 C 22.499987543693322 107.57881046394301 75.32782830570113 C 0.0 **** -0.24
20892 H 22.56509116054417 106.78281805187139 76.06975182180247 H 0.0 **** 0.06
20893 H 23.484363764444225 107.7499583901005 74.89127616314681 H 0.0 **** 0.06
20894 H 22.149690025743922 108.49348421594537 75.80582460304106 H 0.0 **** 0.06
20895 H 21.799990319090284 107.28840107991734 74.54346089461637 H 0.0 **** 0.06
20896 C 108.6218025128399 129.06800686624095 106.09772617909606 C 0.0 **** -0.24
20897 H 108.4711737648932 129.29084073084366 107.15354003633824 H 0.0 **** 0.06
20898 H 109.65404260690923 129.2868814732381 105.82412025984597 H 0.0 **** 0.06
20899 H 107.94844758159894 129.68081559369503 105.49772323463914 H 0.0 **** 0.06
20900 H 108.41277443154644 128.0137116712706 105.91611724664641 H 0.0 **** 0.06
20901 C 78.224928998558 68.71151298847114 85.30280008819844 C 0.0 **** -0.24
20902 H 78.09920828296671 67.65837286396282 85.0516247077849 H 0.0 **** 0.06
20903 H 79.1393581852196 68.83867585844494 85.88298523211895 H 0.0 **** 0.06
20904 H 77.37103636257135 69.04905854713046 85.89023626394948 H 0.0 **** 0.06
20905 H 78.29091246727265 69.29790586045344 84.38680639774557 H 0.0 **** 0.06
20906 C 50.12271541146373 109.43094823491445 47.91826629212997 C 0.0 **** -0.24
20907 H 50.28310129297019 108.35519507968594 47.99294851108378 H 0.0 **** 0.06
20908 H 51.07832455714207 109.94775585756925 48.01520961095504 H 0.0 **** 0.06
20909 H 49.451087769891586 109.75451083036394 48.7133653099004 H 0.0 **** 0.06
20910 H 49.67996559263577 109.66545691704953 46.949923274964334 H 0.0 **** 0.06
20911 C 103.90239979228029 44.46889034484897 75.55164863510353 C 0.0 **** -0.24
20912 H 102.85582578818006 44.76899833913946 75.49155719620836 H 0.0 **** 0.06
20913 H 104.0165779173022 43.467380048516915 75.13738258544198 H 0.0 **** 0.06
20914 H 104.22159327500864 44.47058585881683 76.59378611886251 H 0.0 **** 0.06
20915 H 104.51346567015153 45.1692377004247 74.98285610636765 H 0.0 **** 0.06
20916 C 124.5681623270682 32.662150066637764 106.75821595328956 C 0.0 **** -0.24
20917 H 123.51139283303908 32.85296111961861 106.5672229101465 H 0.0 **** 0.06
20918 H 125.1079220024419 32.630402281996794 105.81173591096679 H 0.0 **** 0.06
20919 H 124.67680475377166 31.706063122360717 107.27049271891222 H 0.0 **** 0.06
20920 H 124.97388685599307 33.45744352070727 107.38326380047697 H 0.0 **** 0.06
20921 C 7.222820077870438 22.87624270628173 31.472711543884856 C 0.0 **** -0.24
20922 H 8.192823093501147 22.414443115086016 31.65708937925524 H 0.0 **** 0.06
20923 H 6.985642874504947 23.56172106698839 32.286642935434585 H 0.0 **** 0.06
20924 H 6.457690545715366 22.101780040168414 31.414614249756482 H 0.0 **** 0.06
20925 H 7.255683026323766 23.42579751113066 30.531414840185676 H 0.0 **** 0.06
20926 C 51.43223602573909 57.34959812075117 94.50420307351862 C 0.0 **** -0.24
20927 H 52.501384889307815 57.158702685217634 94.41430582781726 H 0.0 **** 0.06
20928 H 51.144189458964036 58.134807326748785 93.80355574688093 H 0.0 **** 0.06
20929 H 51.20468604845388 57.66908064714909 95.52121675204967 H 0.0 **** 0.06
20930 H 50.87899167752079 56.43840464648066 94.27667056820195 H 0.0 **** 0.06
20931 C 94.49792196855203 22.94930457536868 39.698743696831116 C 0.0 **** -0.24
20932 H 94.18863396802936 23.717805558368298 38.99018242394288 H 0.0 **** 0.06
20933 H 93.62591428893437 22.590769423886478 40.24763361382617 H 0.0 **** 0.06
20934 H 95.22088085534631 23.369837072190485 40.39813899877379 H 0.0 **** 0.06
20935 H 94.95412670761823 22.119474116588556 39.15892748372903 H 0.0 **** 0.06
20936 C 16.83960024381731 15.615461428876188 79.58104843808869 C 0.0 **** -0.24
20937 H 16.643911098013938 16.67952108731106 79.71819343937075 H 0.0 **** 0.06
20938 H 17.865277766011886 15.476409679741693 79.2383019435578 H 0.0 **** 0.06
20939 H 16.149466155766795 15.21236969927645 78.84051562101487 H 0.0 **** 0.06
20940 H 16.699252569158688 15.096473836207736 80.52922737938083 H 0.0 **** 0.06
20941 C 119.4115949448158 116.55346723878291 108.92217559399779 C 0.0 **** -0.24
20942 H 118.97284169259494 116.43709290290785 109.91250959701807 H 0.0 **** 0.06
20943 H 120.38601708842579 117.03570571677592 109.01020119825432 H 0.0 **** 0.06
20944 H 118.75593628497258 117.16709228629229 108.30435934293678 H 0.0 **** 0.06
20945 H 119.53216224463979 115.57285761507127 108.46099101056535 H 0.0 **** 0.06
20946 C 136.62269089056642 49.841028696059496 121.47889193193016 C 0.0 **** -0.24
20947 H 137.13178089201213 50.52195929156923 120.79632045660266 H 0.0 **** 0.06
20948 H 135.9537456620034 50.40825866228634 122.12530070232627 H 0.0 **** 0.06
20949 H 137.36020480212503 49.31816944616271 122.08733281283419 H 0.0 **** 0.06
20950 H 136.04618702064332 49.1160747178899 120.90307166980678 H 0.0 **** 0.06
20951 C 81.45295600360272 131.52554197326106 56.21766589474639 C 0.0 **** -0.24
20952 H 80.51273409170784 131.64849058971976 55.67924474816307 H 0.0 **** 0.06
20953 H 81.30452839551751 131.7751726740171 57.268967335536786 H 0.0 **** 0.06
20954 H 82.2050055758532 132.1879945542946 55.790064586747974 H 0.0 **** 0.06
20955 H 81.78817194349311 130.49193809646334 56.13260010273396 H 0.0 **** 0.06
20956 C 96.28487132570245 75.52437104159813 68.43964944737678 C 0.0 **** -0.24
20957 H 96.53229529584159 75.15230356783727 69.43343163348102 H 0.0 **** 0.06
20958 H 95.22021563158646 75.7500788964966 68.3913477352041 H 0.0 **** 0.06
20959 H 96.53014804953246 74.76525010269494 67.6967876617368 H 0.0 **** 0.06
20960 H 96.85889826186605 76.42908095805883 68.23736752537197 H 0.0 **** 0.06
20961 C 104.72410612993922 124.89323244500076 98.71131411127426 C 0.0 **** -0.24
20962 H 103.7506248294195 125.33464363635377 98.92625419735515 H 0.0 **** 0.06
20963 H 104.91976144603612 124.085202576667 99.41690582544605 H 0.0 **** 0.06
20964 H 105.4968503965601 125.6550865056699 98.8060005199502 H 0.0 **** 0.06
20965 H 104.72635432252167 124.4973716165812 97.69483876649815 H 0.0 **** 0.06
20966 C 22.010863342873463 21.68058679444485 13.423770018185074 C 0.0 **** -0.24
20967 H 21.36791801938469 22.221007416504932 14.118951854298189 H 0.0 **** 0.06
20968 H 22.237841609110987 20.695312327048015 13.829450844437929 H 0.0 **** 0.06
20969 H 22.93674048991099 22.236391366289553 13.278354584174707 H 0.0 **** 0.06
20970 H 21.49932895380269 21.571152966225583 12.467292773563734 H 0.0 **** 0.06
20971 C 34.25906261412999 128.99403759079362 65.88422198416048 C 0.0 **** -0.24
20972 H 35.2872124481556 129.24730807257473 65.62756884297704 H 0.0 **** 0.06
20973 H 34.12397206589867 127.9141703347521 65.8218829439605 H 0.0 **** 0.06
20974 H 33.57877262948372 129.4856964347893 65.1880409287701 H 0.0 **** 0.06
20975 H 34.04476877245418 129.32917067043954 66.89859658212721 H 0.0 **** 0.06
20976 C 124.1688291014074 80.96551934911949 102.42654595292476 C 0.0 **** -0.24
20977 H 123.93724963734476 81.60838709862921 103.27534797520354 H 0.0 **** 0.06
20978 H 124.01141361234335 81.51802994008489 101.5002207896446 H 0.0 **** 0.06
20979 H 123.51732380776794 80.0922110678753 102.4443607201452 H 0.0 **** 0.06
20980 H 125.20801567192598 80.64466732231884 102.48714361093693 H 0.0 **** 0.06
20981 C 116.8919067783499 80.2098388596826 139.4735951186456 C 0.0 **** -0.24
20982 H 117.60301373740201 79.60058973360623 138.91508968317908 H 0.0 **** 0.06
20983 H 116.00908144758272 80.39159301867139 138.8603074402662 H 0.0 **** 0.06
20984 H 117.355815925622 81.16057560643159 139.7355814206591 H 0.0 **** 0.06
20985 H 116.60049318755402 79.68430137587845 140.3837568789662 H 0.0 **** 0.06
20986 C 44.26797906727401 74.4474565871511 80.2484315737324 C 0.0 **** -0.24
20987 H 44.96343170451678 73.61522301735462 80.13873736372872 H 0.0 **** 0.06
20988 H 43.931364741162014 74.77043567927078 79.26372950647354 H 0.0 **** 0.06
20989 H 44.768366290816516 75.27449318926838 80.7524077570391 H 0.0 **** 0.06
20990 H 43.4097320993632 74.12796601476023 80.8399117766933 H 0.0 **** 0.06
20991 C 67.7150406532717 33.207794284647946 131.21996574089556 C 0.0 **** -0.24
20992 H 67.57072297657426 34.17125887931723 130.73096442769955 H 0.0 **** 0.06
20993 H 67.5066012171752 32.406242877250484 130.5104325883737 H 0.0 **** 0.06
20994 H 67.03672070923623 33.12732568372243 132.06930121534847 H 0.0 **** 0.06
20995 H 68.74469414881496 33.12687401830786 131.56724149949434 H 0.0 **** 0.06
20996 C 39.226499196172284 19.123598116476018 79.82492239687858 C 0.0 **** -0.24
20997 H 40.12598944426276 19.088910835217135 79.21089719540234 H 0.0 **** 0.06
20998 H 39.196454992897145 20.064885570513695 80.37335940685708 H 0.0 **** 0.06
20999 H 39.236749148717195 18.29194376679068 80.52987197237871 H 0.0 **** 0.06
21000 H 38.34701874959987 19.046955002713702 79.18583096340873 H 0.0 **** 0.06
21001 C 23.435876842784438 25.752054372405325 32.07082137624215 C 0.0 **** -0.24
21002 H 22.43741315120174 26.1862737460904 32.13360470202869 H 0.0 **** 0.06
21003 H 24.166558735726134 26.544766886033827 31.90913726187418 H 0.0 **** 0.06
21004 H 23.473782786518143 25.047561374957702 31.24012188811068 H 0.0 **** 0.06
21005 H 23.663925605032126 25.23121567874469 33.000740034187345 H 0.0 **** 0.06
21006 C 45.729853575005535 11.9266458206489 131.03040200753418 C 0.0 **** -0.24
21007 H 45.23167529628567 12.548725292558231 130.28700950264792 H 0.0 **** 0.06
21008 H 45.102678210265225 11.852034245920834 131.91949768753034 H 0.0 **** 0.06
21009 H 46.68691293649634 12.375469557746896 131.29793250349488 H 0.0 **** 0.06
21010 H 45.89781296907985 10.932039933489762 130.61891372147466 H 0.0 **** 0.06
21011 C 31.060874303147436 75.08958016998815 101.47539686625404 C 0.0 **** -0.24
21012 H 30.38624162540001 75.06365133402414 100.62025284502974 H 0.0 **** 0.06
21013 H 32.03547702956272 75.46144056499531 101.1588683868734 H 0.0 **** 0.06
21014 H 31.16975447563879 74.08355650580074 101.88201393773508 H 0.0 **** 0.06
21015 H 30.651896023311387 75.74788915920897 102.2417955440485 H 0.0 **** 0.06
21016 C 4.085888945139374 90.9301449163211 19.72143576673696 C 0.0 **** -0.24
21017 H 5.01927791623973 91.42939564445109 19.46082562147845 H 0.0 **** 0.06
21018 H 4.277968954172934 89.8708729527612 19.89617309578054 H 0.0 **** 0.06
21019 H 3.3741166431885006 91.03941472022743 18.903278575544178 H 0.0 **** 0.06
21020 H 3.673458112007154 91.37891229551437 20.624786484258053 H 0.0 **** 0.06
21021 C 63.6135707944824 67.00934737259668 94.53242808294985 C 0.0 **** -0.24
21022 H 63.906011014841624 65.98798888531392 94.28851117451686 H 0.0 **** 0.06
21023 H 64.49295157861512 67.65388837446169 94.5091626258841 H 0.0 **** 0.06
21024 H 63.17165878056598 67.03188295499473 95.5273590906963 H 0.0 **** 0.06
21025 H 62.88572973246737 67.36218377860835 93.8023056812251 H 0.0 **** 0.06
21026 C 125.4427793850097 74.06734123290968 143.08150624631568 C 0.0 **** -0.24
21027 H 126.30540984226857 73.559715851697 143.51192931525406 H 0.0 **** 0.06
21028 H 125.74357434567318 75.05087988046526 142.71977147888518 H 0.0 **** 0.06
21029 H 124.66982696143988 74.18054582112771 143.8422658725243 H 0.0 **** 0.06
21030 H 125.05247911181361 73.47868918126528 142.2511904253297 H 0.0 **** 0.06
21031 C 142.2048336973502 16.37824782210228 30.74092257875739 C 0.0 **** -0.24
21032 H 141.56995430718405 16.879466269490166 31.471104128899867 H 0.0 **** 0.06
21033 H 142.35246753794135 17.03201464859623 29.879942795873177 H 0.0 **** 0.06
21034 H 141.72620129517986 15.454085399703928 30.416821141535735 H 0.0 **** 0.06
21035 H 143.16895446132713 16.14972337701377 31.193449437995014 H 0.0 **** 0.06
21036 C 93.06467669423176 17.976937930216337 13.010584952042052 C 0.0 **** -0.24
21037 H 93.92655759759387 17.494675315229983 13.471285457518377 H 0.0 **** 0.06
21038 H 92.16231344905029 17.71283152920529 13.562684862130823 H 0.0 **** 0.06
21039 H 92.9704947005375 17.641524218770343 11.977082483874142 H 0.0 **** 0.06
21040 H 93.19947484049226 19.05780182295473 13.030220269048243 H 0.0 **** 0.06
21041 C 139.78862008474468 9.948738833547665 14.76501740439835 C 0.0 **** -0.24
21042 H 140.06927628742338 10.399988871654486 13.812989871308986 H 0.0 **** 0.06
21043 H 140.6531415756118 9.936125543957289 15.429051598139125 H 0.0 **** 0.06
21044 H 139.4429759040676 8.929478686806235 14.596741773870207 H 0.0 **** 0.06
21045 H 138.98924186975125 10.532916204255677 15.220698386159086 H 0.0 **** 0.06
21046 C 106.13212662923141 108.81909881598924 55.15189845630155 C 0.0 **** -0.24
21047 H 105.9460293242607 107.81024431249475 55.519250124541315 H 0.0 **** 0.06
21048 H 107.01266035699749 109.22932267513156 55.646761724299324 H 0.0 **** 0.06
21049 H 105.26780993743662 109.44831387083698 55.36734920010332 H 0.0 **** 0.06
21050 H 106.30046335179483 108.78909754262568 54.076043212004436 H 0.0 **** 0.06
21051 C 80.59895176594351 69.00281834788956 48.20999660177718 C 0.0 **** -0.24
21052 H 81.47372947658074 68.35261980286634 48.183563076818174 H 0.0 **** 0.06
21053 H 80.65812028198093 69.7247005485591 47.395948669554045 H 0.0 **** 0.06
21054 H 80.5677941925103 69.53076312133194 49.16319565035508 H 0.0 **** 0.06
21055 H 79.69668936807764 68.40162631494903 48.09780657963785 H 0.0 **** 0.06
21056 C 35.16015089417014 84.18895590974307 12.372665441237046 C 0.0 **** -0.24
21057 H 35.56330963825106 83.62677763376898 13.215319897908302 H 0.0 **** 0.06
21058 H 35.57141465213213 85.19866037806216 12.380723408166517 H 0.0 **** 0.06
21059 H 34.07478087314156 84.237618573425 12.453842471672345 H 0.0 **** 0.06
21060 H 35.43292846874323 83.69349058349117 11.441133164943409 H 0.0 **** 0.06
21061 C 131.33228868162183 121.0142458817786 78.20120703578527 C 0.0 **** -0.24
21062 H 131.07681358222655 120.53856837316658 79.14768167622091 H 0.0 **** 0.06
21063 H 130.98963928092962 120.38811873837727 77.37697762881938 H 0.0 **** 0.06
21064 H 132.41247571072046 121.14084678292119 78.13804823240973 H 0.0 **** 0.06
21065 H 130.84784544750045 121.98896550111107 78.14180736150014 H 0.0 **** 0.06
21066 C 0.767477238766503 11.886738725119628 125.27064529453989 C 0.0 **** -0.24
21067 H 0.08094070757982763 11.766960003799532 124.4321355598332 H 0.0 **** 0.06
21068 H 0.22019691497087024 12.259937032711868 126.13617008281116 H 0.0 **** 0.06
21069 H 1.5490959440949155 12.596731292730723 125.00119283332654 H 0.0 **** 0.06
21070 H 1.2173681943071415 10.924622686347234 125.51208405790791 H 0.0 **** 0.06
21071 C 94.75336817850621 67.16195121028092 33.70958681068612 C 0.0 **** -0.24
21072 H 95.79461998401544 67.15621982158439 34.032318491599995 H 0.0 **** 0.06
21073 H 94.37518997274894 66.13957914830591 33.68308123150507 H 0.0 **** 0.06
21074 H 94.68372474973775 67.60134648902877 32.71456948780673 H 0.0 **** 0.06
21075 H 94.15987366917446 67.75149356932629 34.40892578734832 H 0.0 **** 0.06
21076 C 25.916015602398005 59.406642183070545 125.24442153580475 C 0.0 **** -0.24
21077 H 25.03158432156681 59.586100681215925 124.63280329640753 H 0.0 **** 0.06
21078 H 26.31177930837316 58.41378938898302 125.02681779932652 H 0.0 **** 0.06
21079 H 25.647908679750984 59.46911177534196 126.29891293381905 H 0.0 **** 0.06
21080 H 26.67254813427263 60.157653094871335 125.01693079891936 H 0.0 **** 0.06
21081 C 94.46626057840335 133.55545633753377 44.23127496234406 C 0.0 **** -0.24
21082 H 94.94301064854741 132.78755798913932 43.62138445618376 H 0.0 **** 0.06
21083 H 94.44834471255042 134.4967415779177 43.682813502658334 H 0.0 **** 0.06
21084 H 95.02757135453383 133.6841330927802 45.15702731874488 H 0.0 **** 0.06
21085 H 93.44600504836289 133.25092126731863 44.465571698884204 H 0.0 **** 0.06
21086 C 93.98838643994226 76.432007335809 140.9829196845656 C 0.0 **** -0.24
21087 H 93.86189409759925 76.44605002287204 142.06541512656744 H 0.0 **** 0.06
21088 H 95.0433927135477 76.55522374209562 140.73796584898764 H 0.0 **** 0.06
21089 H 93.4146177142948 77.24639873522827 140.54008561426463 H 0.0 **** 0.06
21090 H 93.63229794235012 75.48069728568615 140.58792974300366 H 0.0 **** 0.06
21091 C 117.24361576544565 59.86787627783225 5.300582268295614 C 0.0 **** -0.24
21092 H 118.22230965350859 59.850299643800994 4.823141021229475 H 0.0 **** 0.06
21093 H 117.36622266694336 59.96992810437858 6.378759369031485 H 0.0 **** 0.06
21094 H 116.71547809265185 58.93885081253893 5.08181468077089 H 0.0 **** 0.06
21095 H 116.6678538267417 60.71101192203852 4.9181186803564 H 0.0 **** 0.06
21096 C 33.37776011964641 82.25416009404387 94.57715525379058 C 0.0 **** -0.24
21097 H 33.34421826397235 83.11405728273263 95.24612884369016 H 0.0 **** 0.06
21098 H 32.36090262391585 81.94391311353206 94.33412316961932 H 0.0 **** 0.06
21099 H 33.90078869824251 81.43315112151072 95.06658168129565 H 0.0 **** 0.06
21100 H 33.90376597956862 82.52640882980279 93.66237476822484 H 0.0 **** 0.06
21101 C 86.00207190495219 35.59551637727276 106.42133023090365 C 0.0 **** -0.24
21102 H 86.14537961452601 34.76917397070571 105.72577147446542 H 0.0 **** 0.06
21103 H 86.90349891871699 35.72428941477787 107.02113584591753 H 0.0 **** 0.06
21104 H 85.15799744697334 35.37694620292166 107.0756958007186 H 0.0 **** 0.06
21105 H 85.80308067083679 36.51014986966891 105.86369063709962 H 0.0 **** 0.06
21106 C 39.598298385066755 145.38909900907174 74.13108374135913 C 0.0 **** -0.24
21107 H 39.81154160506003 146.13784394013646 73.36797872390082 H 0.0 **** 0.06
21108 H 38.65058085125969 144.9005573090368 73.90492588739647 H 0.0 **** 0.06
21109 H 39.53556928028203 145.87325127947065 75.10593940258264 H 0.0 **** 0.06
21110 H 40.39598375263867 144.6468312835574 74.14485131468342 H 0.0 **** 0.06
21111 C 136.39479154156132 6.721772890705466 137.68543200543016 C 0.0 **** -0.24
21112 H 136.4095635081573 7.40979399554368 138.53116581561093 H 0.0 **** 0.06
21113 H 136.02492150774646 7.240735799617113 136.8010567683544 H 0.0 **** 0.06
21114 H 135.7405018383552 5.880814672284885 137.9139032935038 H 0.0 **** 0.06
21115 H 137.40382468872662 6.356816512732706 137.49753367402622 H 0.0 **** 0.06
21116 C 50.78223419730725 53.703454629869725 68.78202205229351 C 0.0 **** -0.24
21117 H 50.104303296188775 54.549127086273614 68.90261118223813 H 0.0 **** 0.06
21118 H 50.322289334103274 52.80692985645001 69.19983065331772 H 0.0 **** 0.06
21119 H 51.71627827193879 53.91036514670171 69.30374858271782 H 0.0 **** 0.06
21120 H 50.983968305303534 53.54865396181012 67.7220357293264 H 0.0 **** 0.06
21121 C 97.24147074695917 11.978632630708375 60.29524512808382 C 0.0 **** -0.24
21122 H 97.59416297851817 12.72286364680059 61.00944838491671 H 0.0 **** 0.06
21123 H 97.82824173680274 11.065675184721385 60.401200041661355 H 0.0 **** 0.06
21124 H 97.35027272655844 12.366179624686652 59.282311590539905 H 0.0 **** 0.06
21125 H 96.1913511855194 11.75942653613663 60.48866305909411 H 0.0 **** 0.06
21126 C 101.42762416681805 97.18598837948971 36.111726142447424 C 0.0 **** -0.24
21127 H 101.0119698141383 96.29710968050789 35.637460393216145 H 0.0 **** 0.06
21128 H 100.66676119392173 97.96605564040972 36.15337403778648 H 0.0 **** 0.06
21129 H 102.28036385373377 97.5408440899488 35.53175510301929 H 0.0 **** 0.06
21130 H 101.75262455184713 96.94024894112898 37.12221450497299 H 0.0 **** 0.06
21131 C 142.28738557473378 31.7399503455959 46.3071239575046 C 0.0 **** -0.24
21132 H 142.56490500508662 30.89013233346867 46.931474218646784 H 0.0 **** 0.06
21133 H 141.98903315368975 32.574539698838834 46.942330523695475 H 0.0 **** 0.06
21134 H 141.4564944948577 31.45952176499989 45.660600428620114 H 0.0 **** 0.06
21135 H 143.13995096024553 32.034952446715835 45.696295935679544 H 0.0 **** 0.06
21136 C 10.791047552675138 140.5873128986574 13.531131289872832 C 0.0 **** -0.24
21137 H 11.00574991256974 139.62708481765324 14.000201463867228 H 0.0 **** 0.06
21138 H 11.701051515199282 141.18621914860952 13.498055934975554 H 0.0 **** 0.06
21139 H 10.030230633012394 141.1113403458981 14.109334308733452 H 0.0 **** 0.06
21140 H 10.426862345898485 140.4224061287952 12.517193530550372 H 0.0 **** 0.06
21141 C 55.99323605189872 32.46151849039592 140.59999744456422 C 0.0 **** -0.24
21142 H 55.26650907765125 31.64895628041978 140.56443729807984 H 0.0 **** 0.06
21143 H 56.561246509457845 32.481004418109706 139.67019892304316 H 0.0 **** 0.06
21144 H 56.67244310799359 32.30342528559822 141.43778155407279 H 0.0 **** 0.06
21145 H 55.47205389333786 33.40978447505876 140.72787487252685 H 0.0 **** 0.06
21146 C 39.895155644950684 97.46247885130578 68.86725111926643 C 0.0 **** -0.24
21147 H 40.84151283004015 96.95297338796809 68.68629214567453 H 0.0 **** 0.06
21148 H 39.39273319793026 97.00128717046624 69.71822753869345 H 0.0 **** 0.06
21149 H 39.26387956422616 97.37985004329869 67.98345656544795 H 0.0 **** 0.06
21150 H 40.08408407288019 98.51388141053044 69.08269619397448 H 0.0 **** 0.06
21151 C 74.75261210916813 77.0155319456595 102.51893269996788 C 0.0 **** -0.24
21152 H 73.93146860061461 77.69288043163618 102.75514509810117 H 0.0 **** 0.06
21153 H 74.75319024889635 76.18527491610081 103.2262189868647 H 0.0 **** 0.06
21154 H 75.69784863742518 77.55372235413377 102.58763404549777 H 0.0 **** 0.06
21155 H 74.62683866506242 76.63109958078299 101.50648086475118 H 0.0 **** 0.06
21156 C 54.81859517156528 59.37180508885437 130.14663345520896 C 0.0 **** -0.24
21157 H 55.34762488254776 58.82198853787813 130.92605586319274 H 0.0 **** 0.06
21158 H 55.37090726304953 60.280212010867544 129.90553362893465 H 0.0 **** 0.06
21159 H 53.821654376140685 59.63438508339044 130.49933539105555 H 0.0 **** 0.06
21160 H 54.73606830123802 58.749102262384255 129.2559823506465 H 0.0 **** 0.06
21161 C 67.62887057040064 41.14239247044097 94.48992424250363 C 0.0 **** -0.24
21162 H 66.90421482297205 41.463129180528924 93.74273294979224 H 0.0 **** 0.06
21163 H 67.29973719699547 41.465853532751794 95.47750870360828 H 0.0 **** 0.06
21164 H 68.60050322152097 41.58367787907984 94.26748529882286 H 0.0 **** 0.06
21165 H 67.71116514219614 40.05520356248668 94.47223751460689 H 0.0 **** 0.06
21166 C 77.2097960420239 54.872800485610114 75.00843180349469 C 0.0 **** -0.24
21167 H 76.22787161992537 55.05403593690603 75.44530595840719 H 0.0 **** 0.06
21168 H 77.94226861448666 55.532297545815425 75.47590323224374 H 0.0 **** 0.06
21169 H 77.17284370607504 55.071699525688075 73.9372303256663 H 0.0 **** 0.06
21170 H 77.4965413282392 53.83452966825074 75.17546697428324 H 0.0 **** 0.06
21171 C 133.68892483272197 24.30856008580548 13.608609604480051 C 0.0 **** -0.24
21172 H 134.0750760375356 24.99763493839191 14.35941115667353 H 0.0 **** 0.06
21173 H 132.8733938679924 24.783561656274003 13.063742989643316 H 0.0 **** 0.06
21174 H 133.3221449957537 23.406310443251527 14.09852699742035 H 0.0 **** 0.06
21175 H 134.48663527156535 24.045143537930244 12.912496991023687 H 0.0 **** 0.06
21176 C 29.757916030047966 128.09460766059595 127.9125874537088 C 0.0 **** -0.24
21177 H 30.427695757375545 128.94442335353537 127.78124706130234 H 0.0 **** 0.06
21178 H 29.606885094569407 127.59861384931482 126.95433349620774 H 0.0 **** 0.06
21179 H 28.799504899678652 128.44588310843022 128.29579965567976 H 0.0 **** 0.06
21180 H 30.196220384036963 127.39261571388653 128.6213176260021 H 0.0 **** 0.06
21181 C 8.840739321700653 17.97811516102189 64.82528432937583 C 0.0 **** -0.24
21182 H 7.90501284213417 17.501024571531417 65.11898737775165 H 0.0 **** 0.06
21183 H 8.970789172661199 17.888761361314664 63.74671173741632 H 0.0 **** 0.06
21184 H 9.671796098133626 17.489743778618305 65.33368958439297 H 0.0 **** 0.06
21185 H 8.813133600188849 19.03194633728674 65.10202728600724 H 0.0 **** 0.06
21186 C 131.2968379754432 6.8221858294417075 79.64409500306883 C 0.0 **** -0.24
21187 H 131.5690792983466 7.836188030697741 79.93543853710138 H 0.0 **** 0.06
21188 H 131.3961160859586 6.716192321830789 78.56344558530357 H 0.0 **** 0.06
21189 H 130.2655943204243 6.624701959782556 79.93457991954944 H 0.0 **** 0.06
21190 H 131.9576345400023 6.111584375445375 80.14071495452987 H 0.0 **** 0.06
21191 C 102.47333237443537 30.60325616455529 99.49853612625893 C 0.0 **** -0.24
21192 H 103.43727965489661 31.106954049047488 99.43212118996317 H 0.0 **** 0.06
21193 H 102.53862968760268 29.787405611554192 100.21816729350402 H 0.0 **** 0.06
21194 H 102.2040010956429 30.204700297417332 98.52020755293032 H 0.0 **** 0.06
21195 H 101.71405671978239 31.314840186259033 99.8227390726747 H 0.0 **** 0.06
21196 C 143.39485401941215 59.57142583987783 101.9423028656999 C 0.0 **** -0.24
21197 H 142.50348197887493 59.929751096042 102.45688597522019 H 0.0 **** 0.06
21198 H 143.48574016175513 60.07455060551281 100.97941029868416 H 0.0 **** 0.06
21199 H 143.31679776143662 58.495391451853024 101.78495567332412 H 0.0 **** 0.06
21200 H 144.275126704023 59.786622691942284 102.54923636748943 H 0.0 **** 0.06
21201 C 115.78886026597498 58.25285364542026 117.0954219524816 C 0.0 **** -0.24
21202 H 114.8024453730249 58.694050198493485 117.24035014804396 H 0.0 **** 0.06
21203 H 116.0136704690781 57.5851259297186 117.9273029420598 H 0.0 **** 0.06
21204 H 116.53737869114023 59.04526568812943 117.05247660510928 H 0.0 **** 0.06
21205 H 115.8014004906721 57.689798531109744 116.1624050393175 H 0.0 **** 0.06
21206 C 87.944054824874 140.44270250301165 135.92600661325244 C 0.0 **** -0.24
21207 H 88.94728775831896 140.86350799141195 135.86687732580836 H 0.0 **** 0.06
21208 H 88.00764611747198 139.35378035759518 135.95570034343282 H 0.0 **** 0.06
21209 H 87.3696453982215 140.74915218980016 135.05228625809983 H 0.0 **** 0.06
21210 H 87.45169286450755 140.80203528437306 136.82990349291836 H 0.0 **** 0.06
21211 C 70.67348273350726 6.622721919027626 46.17111651293193 C 0.0 **** -0.24
21212 H 70.92927808030788 5.9009122452884775 46.94742861221526 H 0.0 **** 0.06
21213 H 70.90393236631579 7.62864043883237 46.52113618102737 H 0.0 **** 0.06
21214 H 69.60932766519171 6.550239586186699 45.94471811444156 H 0.0 **** 0.06
21215 H 71.25128348453204 6.408083332889838 45.27214017009206 H 0.0 **** 0.06
21216 C 128.6704062430626 110.1442644909174 87.18562109425115 C 0.0 **** -0.24
21217 H 127.66294072118967 110.55701622047779 87.23619895457679 H 0.0 **** 0.06
21218 H 128.8630271662795 109.54531976900596 88.07583472359654 H 0.0 **** 0.06
21219 H 129.39354623808325 110.95905382695595 87.13153918094635 H 0.0 **** 0.06
21220 H 128.7614308008335 109.51849758376999 86.29818198404311 H 0.0 **** 0.06
21221 C 64.83296205646354 119.96946739432761 8.834774864882121 C 0.0 **** -0.24
21222 H 65.52096435801012 119.29482940644229 9.343362392225032 H 0.0 **** 0.06
21223 H 65.25065931004299 120.9766488582923 8.828260612563582 H 0.0 **** 0.06
21224 H 63.87691500026516 119.9757662700417 9.356890928984598 H 0.0 **** 0.06
21225 H 64.68443290743983 119.63073647389982 7.808655270214388 H 0.0 **** 0.06
21226 C 20.57252103860113 15.459905601454949 115.61405747727771 C 0.0 **** -0.24
21227 H 21.030921026642375 14.498367849939939 115.38380222250503 H 0.0 **** 0.06
21228 H 20.20179724089415 15.915110124960819 114.69471331976082 H 0.0 **** 0.06
21229 H 21.31294781181783 16.114910143956877 116.07129052681229 H 0.0 **** 0.06
21230 H 19.742215702131972 15.310620560940066 116.30475853424814 H 0.0 **** 0.06
21231 C 112.85798640642538 119.55549631976194 136.60136117582945 C 0.0 **** -0.24
21232 H 112.59773361845659 119.11713743952382 135.63849055774287 H 0.0 **** 0.06
21233 H 112.5103354635758 120.58797420968747 136.63700001563026 H 0.0 **** 0.06
21234 H 113.93973916694075 119.5317392488719 136.73123974271843 H 0.0 **** 0.06
21235 H 112.38389892622583 118.98483565149334 137.40007600002915 H 0.0 **** 0.06
21236 C 127.2621592241857 6.256051891003153 130.7677946457339 C 0.0 **** -0.24
21237 H 126.64476387398025 7.148084488115444 130.65952763179115 H 0.0 **** 0.06
21238 H 127.11083272277043 5.603311458132993 129.90766027006754 H 0.0 **** 0.06
21239 H 126.97989659445736 5.727051772172018 131.67817895346104 H 0.0 **** 0.06
21240 H 128.31173106159437 6.544080764137732 130.82538121515694 H 0.0 **** 0.06
21241 C 68.98694870611656 76.01920294647029 87.57889290826415 C 0.0 **** -0.24
21242 H 68.42190119830403 76.1427373868839 88.5031880372702 H 0.0 **** 0.06
21243 H 68.4206475732641 76.441208011331 86.74829512730996 H 0.0 **** 0.06
21244 H 69.16171940779424 74.95914624442956 87.39896007947097 H 0.0 **** 0.06
21245 H 69.94335163121832 76.53567289081555 87.66620373334219 H 0.0 **** 0.06
21246 C 46.687815318960304 24.92422041293662 78.31707132067571 C 0.0 **** -0.24
21247 H 45.86321476931043 25.311509846893955 77.71785369375753 H 0.0 **** 0.06
21248 H 47.485002174819115 24.57871260616473 77.6576181827062 H 0.0 **** 0.06
21249 H 46.33415829616838 24.093217049103345 78.92711886198036 H 0.0 **** 0.06
21250 H 47.06821836420971 25.71445356736767 78.96496561598907 H 0.0 **** 0.06
21251 C 141.60234252691328 14.889566923611085 121.0426838878205 C 0.0 **** -0.24
21252 H 141.2345962301596 13.935125246549177 120.66435771079306 H 0.0 **** 0.06
21253 H 141.871630186429 15.532689823762013 120.2039669795504 H 0.0 **** 0.06
21254 H 142.4789651189647 14.719744599871007 121.66748632671754 H 0.0 **** 0.06
21255 H 140.82244261333372 15.37051532301669 121.6332071014031 H 0.0 **** 0.06
21256 C 65.34103109857111 61.35491033834329 104.58217535296475 C 0.0 **** -0.24
21257 H 64.82632401543887 61.180548799814346 103.6374041844689 H 0.0 **** 0.06
21258 H 66.32098185774014 61.791033403883844 104.38703668726039 H 0.0 **** 0.06
21259 H 65.46196987695313 60.40877876334315 105.10968530467393 H 0.0 **** 0.06
21260 H 64.75324014518384 62.03875940117841 105.19419915490059 H 0.0 **** 0.06
21261 C 145.40979876047683 1.5266979262862606 44.723818659599814 C 0.0 **** -0.24
21262 H 144.54572437748212 2.182762618140515 44.61098005641175 H 0.0 **** 0.06
21263 H 146.3067029261049 2.0484945355709385 44.388318788364856 H 0.0 **** 0.06
21264 H 145.26443267623637 0.6292597084752174 44.12363270165814 H 0.0 **** 0.06
21265 H 145.52065612873596 1.2502066305799815 45.771492763280705 H 0.0 **** 0.06
21266 C 12.73252406898689 61.23934306100652 100.27036165306706 C 0.0 **** -0.24
21267 H 12.855430025920128 62.322044939150786 100.21589366312514 H 0.0 **** 0.06
21268 H 12.311313598397902 60.970893727271076 101.23910289000338 H 0.0 **** 0.06
21269 H 13.701786165610145 60.75704556276908 100.14909768431579 H 0.0 **** 0.06
21270 H 12.06057967204734 60.910754421690385 99.47818548402117 H 0.0 **** 0.06
21271 C 39.73602858431674 35.58627964749732 136.23224188278613 C 0.0 **** -0.24
21272 H 39.87745967973821 36.2964040931962 135.41757728494073 H 0.0 **** 0.06
21273 H 38.66997296155324 35.45806813151731 136.42072033614875 H 0.0 **** 0.06
21274 H 40.22136567246778 35.96499915828528 137.13229820448274 H 0.0 **** 0.06
21275 H 40.17549646983217 34.62704867029615 135.95843024693042 H 0.0 **** 0.06
21276 C 13.45243981581089 119.90449054314857 39.52120907494838 C 0.0 **** -0.24
21277 H 12.4840060318636 119.97491192974044 40.016213842547685 H 0.0 **** 0.06
21278 H 14.010807775852442 120.82765873082198 39.684208226003314 H 0.0 **** 0.06
21279 H 13.304445765039702 119.75414311491923 38.4522575946696 H 0.0 **** 0.06
21280 H 14.011339149316996 119.06469862409395 39.93333640527876 H 0.0 **** 0.06
21281 C 98.1428142293875 37.91607517381179 99.62692165250915 C 0.0 **** -0.24
21282 H 98.73544985857929 38.78747593624723 99.9031725617755 H 0.0 **** 0.06
21283 H 98.77607464232314 37.02866555933736 99.63807267971151 H 0.0 **** 0.06
21284 H 97.73400275577255 38.05780154428094 98.62640192858859 H 0.0 **** 0.06
21285 H 97.32772818087295 37.78958614101755 100.33939842372594 H 0.0 **** 0.06
21286 C 25.8623343898742 45.6157116083354 121.99669716409443 C 0.0 **** -0.24
21287 H 25.762965852707723 45.60381779083133 120.91197449750013 H 0.0 **** 0.06
21288 H 25.00057882738708 45.12221046061143 122.44635800899329 H 0.0 **** 0.06
21289 H 25.914044428302617 46.647015008712344 122.34561013359928 H 0.0 **** 0.06
21290 H 26.772867535160806 45.089743392570824 122.28416670102706 H 0.0 **** 0.06
21291 C 87.62646001440916 107.29696980432097 135.66115991822468 C 0.0 **** -0.24
21292 H 88.66220271963451 106.97759612987893 135.54627565085323 H 0.0 **** 0.06
21293 H 87.20047912783767 106.8358048215563 136.55238438657096 H 0.0 **** 0.06
21294 H 87.053640108194 106.99237315859757 134.7848117173394 H 0.0 **** 0.06
21295 H 87.58931919136157 108.38178435197169 135.75980496619738 H 0.0 **** 0.06
21296 C 43.94664222660556 55.38817074296375 138.31398237155722 C 0.0 **** -0.24
21297 H 43.23153375471978 54.821981801037936 137.71573917015888 H 0.0 **** 0.06
21298 H 44.654803301936724 55.89016668829103 137.65350305351603 H 0.0 **** 0.06
21299 H 44.484116955381694 54.70922828321824 138.97518045204427 H 0.0 **** 0.06
21300 H 43.414453361149256 56.13106895081668 138.90816261673373 H 0.0 **** 0.06
21301 C 18.837142015216635 67.99319968658567 28.68649726124721 C 0.0 **** -0.24
21302 H 17.817567529095555 68.20858487726284 28.366298887590062 H 0.0 **** 0.06
21303 H 19.02023853171403 66.92027634123191 28.620013420859493 H 0.0 **** 0.06
21304 H 18.971124648067367 68.32156873916705 29.71730778047487 H 0.0 **** 0.06
21305 H 19.539637351989718 68.52236878868109 28.042368956064365 H 0.0 **** 0.06
21306 C 108.74269943252817 68.5062641770829 40.29239519614353 C 0.0 **** -0.24
21307 H 109.10264635138297 69.44625473842697 39.87446117746268 H 0.0 **** 0.06
21308 H 109.10744222321576 67.67672020110646 39.685411299455154 H 0.0 **** 0.06
21309 H 107.6527108257542 68.50398397376662 40.29452438310739 H 0.0 **** 0.06
21310 H 109.10866234485731 68.39954463783496 41.31332220707755 H 0.0 **** 0.06
21311 C 88.25182753864007 45.15185410833496 5.0533854854116385 C 0.0 **** -0.24
21312 H 87.74176851714208 44.570283292300616 5.82138814281484 H 0.0 **** 0.06
21313 H 87.72523446449219 46.09506200927362 4.9039346988737975 H 0.0 **** 0.06
21314 H 88.26242907198709 44.589760743018616 4.119905692429143 H 0.0 **** 0.06
21315 H 89.27511589046658 45.35243951660425 5.369847668303009 H 0.0 **** 0.06
21316 C 135.21335755989116 132.60968660850966 19.223306832150968 C 0.0 **** -0.24
21317 H 134.96518138414154 133.60996187029855 19.57919995293969 H 0.0 **** 0.06
21318 H 136.29443621363436 132.52335402334458 19.10891025603189 H 0.0 **** 0.06
21319 H 134.73131994092444 132.4355997145753 18.261985175756365 H 0.0 **** 0.06
21320 H 134.86448813681744 131.87027916073149 19.944036073055997 H 0.0 **** 0.06
21321 C 82.87402707564982 18.569256088536306 28.286336789178165 C 0.0 **** -0.24
21322 H 83.14785903564149 17.529220673560957 28.463727010701973 H 0.0 **** 0.06
21323 H 83.44532221360066 19.213755720494007 28.955287487243027 H 0.0 **** 0.06
21324 H 81.80912310602972 18.701223564464797 28.474618397601375 H 0.0 **** 0.06
21325 H 83.09643751005653 18.83139980241279 27.251902076681972 H 0.0 **** 0.06
21326 C 104.80422151029445 47.35372563260687 78.03205087859843 C 0.0 **** -0.24
21327 H 104.03784159940318 47.245958061298 78.79991929165973 H 0.0 **** 0.06
21328 H 105.33433974483391 48.29556341310166 78.17793166628158 H 0.0 **** 0.06
21329 H 104.33561049307166 47.34890830280305 77.04779561885607 H 0.0 **** 0.06
21330 H 105.50929211761236 46.525321792601616 78.10304684163665 H 0.0 **** 0.06
21331 C 80.74358100844601 57.38867281428276 48.0553312031649 C 0.0 **** -0.24
21332 H 79.92019572251291 56.72139776125533 47.79788483613123 H 0.0 **** 0.06
21333 H 81.2522678684936 57.706885144811736 47.14446537482715 H 0.0 **** 0.06
21334 H 81.44766819243146 56.863537963056615 48.70062145814519 H 0.0 **** 0.06
21335 H 80.35294171884091 58.26178647608543 48.57722998700953 H 0.0 **** 0.06
21336 C 94.83912725741479 112.37023191792206 81.66083569971707 C 0.0 **** -0.24
21337 H 94.3866416661312 111.5378595379065 82.1982655402645 H 0.0 **** 0.06
21338 H 95.69092221156494 112.00959695754541 81.08386196053297 H 0.0 **** 0.06
21339 H 95.1746734675274 113.12376983859424 82.37311038257528 H 0.0 **** 0.06
21340 H 94.10371417951917 112.81045903748146 80.9866505392483 H 0.0 **** 0.06
21341 C 84.8125322516164 85.09764954996925 132.66702373811336 C 0.0 **** -0.24
21342 H 84.2512713817269 85.57889336413362 131.86516053978303 H 0.0 **** 0.06
21343 H 85.52612987598519 85.80763103420222 133.08547042725863 H 0.0 **** 0.06
21344 H 85.34708399386034 84.2360853803435 132.26882347773955 H 0.0 **** 0.06
21345 H 84.12462696796143 84.77062235949259 133.4461850800229 H 0.0 **** 0.06
21346 C 127.21690463609715 135.33219910359676 59.99688658600962 C 0.0 **** -0.24
21347 H 126.94226392710098 135.61613545209792 61.012260153019724 H 0.0 **** 0.06
21348 H 127.48446121669159 134.2757303766487 59.97497299340671 H 0.0 **** 0.06
21349 H 128.0685774374496 135.92965662624235 59.67109699243227 H 0.0 **** 0.06
21350 H 126.37274115852384 135.50781624132654 59.32994090020773 H 0.0 **** 0.06
21351 C 68.24092402571236 102.73679684141338 9.70753448946897 C 0.0 **** -0.24
21352 H 67.67658313914652 101.87808820893585 9.34389215908908 H 0.0 **** 0.06
21353 H 69.12765899258542 102.87777641707784 9.088168016477766 H 0.0 **** 0.06
21354 H 68.54276910810572 102.56184233470695 10.74013623174676 H 0.0 **** 0.06
21355 H 67.61673454725312 103.62849009510202 9.656933133348105 H 0.0 **** 0.06
21356 C 105.6963917913856 93.61448872465076 132.1032998839746 C 0.0 **** -0.24
21357 H 106.22703588673639 93.08998472564852 131.30874447916625 H 0.0 **** 0.06
21358 H 106.37544876044669 94.31088088958467 132.5949262335484 H 0.0 **** 0.06
21359 H 105.32601515488412 92.89265646445571 132.83186715764236 H 0.0 **** 0.06
21360 H 104.8570673634753 94.16443281891421 131.67766166554148 H 0.0 **** 0.06
21361 C 128.89753518687544 127.02491789617746 20.07245777193961 C 0.0 **** -0.24
21362 H 128.4124075778446 126.05031828682134 20.012702188769396 H 0.0 **** 0.06
21363 H 128.33439468723094 127.74692726189902 19.48004811179075 H 0.0 **** 0.06
21364 H 129.91280009248862 126.94959770332662 19.68503440165074 H 0.0 **** 0.06
21365 H 128.92775098654732 127.35171910816828 21.11206629777689 H 0.0 **** 0.06
21366 C 20.388631355184543 50.74738130447349 39.34650093672659 C 0.0 **** -0.24
21367 H 20.00592180691291 50.51417658212131 38.353099286893645 H 0.0 **** 0.06
21368 H 20.88820674388714 51.7161017144104 39.32461233175899 H 0.0 **** 0.06
21369 H 21.099712561389822 49.97914231618188 39.65137025424625 H 0.0 **** 0.06
21370 H 19.56219874139353 50.77967357135367 40.05568863529344 H 0.0 **** 0.06
21371 C 25.445655697873114 71.08064029117696 9.834625460834651 C 0.0 **** -0.24
21372 H 26.305139116013287 71.05973072650161 10.504583620490862 H 0.0 **** 0.06
21373 H 24.76313321955395 70.27158052758006 10.093598885801114 H 0.0 **** 0.06
21374 H 25.78355081887102 70.95589907301185 8.805444986394733 H 0.0 **** 0.06
21375 H 24.930592561140095 72.03667859920742 9.934433605735265 H 0.0 **** 0.06
21376 C 70.20773219208522 114.03420545951555 43.84648968636412 C 0.0 **** -0.24
21377 H 70.75442012900979 114.25997024307374 42.93062917190619 H 0.0 **** 0.06
21378 H 70.88594218785218 113.58415407391225 44.571680600621505 H 0.0 **** 0.06
21379 H 69.39920517288152 113.33904334459596 43.623780183858656 H 0.0 **** 0.06
21380 H 69.79329450012042 114.95440092169592 44.2576995912312 H 0.0 **** 0.06
21381 C 103.26997354335982 67.89967279491476 63.937776712946885 C 0.0 **** -0.24
21382 H 104.2663458199914 67.66772349695373 64.31318539585834 H 0.0 **** 0.06
21383 H 103.35498247808702 68.4853898525222 63.0217772805301 H 0.0 **** 0.06
21384 H 102.72337833329104 68.47186620843786 64.68605151690238 H 0.0 **** 0.06
21385 H 102.73658276805489 66.97136644682433 63.72753255877416 H 0.0 **** 0.06
21386 C 93.34519717939635 107.96432670980268 79.19625112015842 C 0.0 **** -0.24
21387 H 92.64593449163142 107.25489590140587 78.75526534031405 H 0.0 **** 0.06
21388 H 93.52847892425068 108.77818568086776 78.49449739741605 H 0.0 **** 0.06
21389 H 94.28456735356177 107.45737962083491 79.41759979217053 H 0.0 **** 0.06
21390 H 92.92286582776448 108.36593011978609 80.11743504992988 H 0.0 **** 0.06
21391 C 129.56186327886857 96.03487549915724 36.160243554176304 C 0.0 **** -0.24
21392 H 130.64085369419337 96.12664460076206 36.284798820583035 H 0.0 **** 0.06
21393 H 129.3341576547389 95.10138718040719 35.645614946822604 H 0.0 **** 0.06
21394 H 129.1924206077795 96.87461303434253 35.57056064217829 H 0.0 **** 0.06
21395 H 129.0821635388621 96.03773209510905 37.138090585773625 H 0.0 **** 0.06
21396 C 69.57349198497211 107.2546959805494 77.20565083793412 C 0.0 **** -0.24
21397 H 68.69716000159373 107.36092135237323 76.56611090306836 H 0.0 **** 0.06
21398 H 70.07844208005453 106.31594163438024 76.97604331923111 H 0.0 **** 0.06
21399 H 69.26442836574444 107.25607221589064 78.25056741345833 H 0.0 **** 0.06
21400 H 70.25554114641908 108.08721726642204 77.02799605349111 H 0.0 **** 0.06
21401 C 138.57970042036146 105.84736631352328 118.05471305804416 C 0.0 **** -0.24
21402 H 139.55961986400763 105.70239915421266 117.60029993359736 H 0.0 **** 0.06
21403 H 138.24457523913435 106.86994480370751 117.8766841019253 H 0.0 **** 0.06
21404 H 138.64581539518986 105.66726788041095 119.1270148798027 H 0.0 **** 0.06
21405 H 137.86889650974445 105.14982226268907 117.61202696138109 H 0.0 **** 0.06
21406 C 119.0639924130763 140.20834648905205 49.17721687299472 C 0.0 **** -0.24
21407 H 118.28818510622145 140.732236493489 48.61832582075286 H 0.0 **** 0.06
21408 H 119.81469501459534 139.8270341012827 48.48504611276783 H 0.0 **** 0.06
21409 H 118.61881329704156 139.37734243234857 49.725001265028965 H 0.0 **** 0.06
21410 H 119.53238388232714 140.89736529082225 49.87946069319685 H 0.0 **** 0.06
21411 C 144.82610078998698 107.62243663182508 35.244779909134365 C 0.0 **** -0.24
21412 H 144.24316075890317 107.13534299257984 34.463279051179995 H 0.0 **** 0.06
21413 H 144.508315042106 108.661391733991 35.340150093568695 H 0.0 **** 0.06
21414 H 145.88455390639058 107.58858124440789 34.98234171181201 H 0.0 **** 0.06
21415 H 144.66982372557175 107.10503235781616 36.19099614473629 H 0.0 **** 0.06
21416 C 32.157379254804255 3.8593456354315663 40.42952643053634 C 0.0 **** -0.24
21417 H 31.09101431478888 4.059815746037515 40.533466061626946 H 0.0 **** 0.06
21418 H 32.68620189527344 4.247625020622337 41.30013980201505 H 0.0 **** 0.06
21419 H 32.53256344067381 4.346919659147375 39.52932071645058 H 0.0 **** 0.06
21420 H 32.3188931108692 2.783968329452847 40.35580523820987 H 0.0 **** 0.06
21421 C 22.9459799349396 130.45087046059336 22.905309384912158 C 0.0 **** -0.24
21422 H 23.47139809106048 131.40515756472223 22.86543721478617 H 0.0 **** 0.06
21423 H 23.546894518699418 129.68524268471978 22.41459086307801 H 0.0 **** 0.06
21424 H 21.98748515025187 130.5431289045183 22.3951476489135 H 0.0 **** 0.06
21425 H 22.778930239905208 130.17110535699092 23.94583800841128 H 0.0 **** 0.06
21426 C 65.00712840135986 132.13591021623338 36.222250760753525 C 0.0 **** -0.24
21427 H 65.5458496666746 132.2490055683826 35.28182016454974 H 0.0 **** 0.06
21428 H 65.22491778227021 131.15621380289963 36.64952197877784 H 0.0 **** 0.06
21429 H 63.93573414808395 132.22303477039128 36.04002126825361 H 0.0 **** 0.06
21430 H 65.32227202823276 132.9141091904403 36.91709155575336 H 0.0 **** 0.06
21431 C 101.72819683372549 104.07713839698752 68.47229340563943 C 0.0 **** -0.24
21432 H 102.37662275557435 104.46804990998743 67.68687377332195 H 0.0 **** 0.06
21433 H 101.21360653499252 104.9038698005793 68.96186658852668 H 0.0 **** 0.06
21434 H 102.33005888397511 103.53869334297093 69.2044852519758 H 0.0 **** 0.06
21435 H 100.99540341723437 103.40003021082119 68.03485294888917 H 0.0 **** 0.06
21436 C 58.77745149500187 69.13721644521041 53.84495071138562 C 0.0 **** -0.24
21437 H 58.59988825800596 69.66443915446979 52.90749382301843 H 0.0 **** 0.06
21438 H 59.8492976017871 69.09845851575474 54.04285398246769 H 0.0 **** 0.06
21439 H 58.38351218411165 68.12419838005451 53.77226609706236 H 0.0 **** 0.06
21440 H 58.27757677035575 69.66453858472013 54.65752656786387 H 0.0 **** 0.06
21441 C 91.23390256784671 54.73571917356152 134.17615090675562 C 0.0 **** -0.24
21442 H 90.21181145663883 54.36762937538302 134.0857431227705 H 0.0 **** 0.06
21443 H 91.84852834713428 54.299854777204715 133.38804411911795 H 0.0 **** 0.06
21444 H 91.63687909359913 54.453005494682074 135.14885014472836 H 0.0 **** 0.06
21445 H 91.23879221893878 55.821293111386424 134.08359191042115 H 0.0 **** 0.06
21446 C 41.207636672440856 38.61237047494612 4.667876316632174 C 0.0 **** -0.24
21447 H 40.708500799991924 38.24755718030059 5.566389310741499 H 0.0 **** 0.06
21448 H 40.73444004180436 39.53877165287702 4.341680483226156 H 0.0 **** 0.06
21449 H 41.127024843468234 37.864853043494776 3.878680321012098 H 0.0 **** 0.06
21450 H 42.258477292864285 38.79806806308838 4.88688141236176 H 0.0 **** 0.06
21451 C 81.75081594623765 66.73878451665254 87.95205765715795 C 0.0 **** -0.24
21452 H 82.72666291397412 66.45752651462061 87.55730268314187 H 0.0 **** 0.06
21453 H 81.02522376529629 66.77015791971121 87.13854881040629 H 0.0 **** 0.06
21454 H 81.81754263811442 67.72234023410584 88.4165644641858 H 0.0 **** 0.06
21455 H 81.4340992657828 66.0065973648706 88.69416302228109 H 0.0 **** 0.06
21456 C 72.52424365512124 17.482612815764924 59.372537385872704 C 0.0 **** -0.24
21457 H 73.02644914426324 16.579730904969153 59.71916798826929 H 0.0 **** 0.06
21458 H 72.89448882566987 18.34149653562332 59.932514328359176 H 0.0 **** 0.06
21459 H 71.44995260794829 17.381679096126106 59.52805279622483 H 0.0 **** 0.06
21460 H 72.72555661895714 17.624924839720904 58.31177766632261 H 0.0 **** 0.06
21461 C 13.791295530015816 2.1979010951287705 119.31894014791601 C 0.0 **** -0.24
21462 H 13.070960448409096 1.5707111013455801 118.79410116212188 H 0.0 **** 0.06
21463 H 14.477130367160562 1.5674433470586564 119.8852894413082 H 0.0 **** 0.06
21464 H 13.263872300152386 2.8650903343720415 120.00113673142835 H 0.0 **** 0.06
21465 H 14.35321900434127 2.7883595977386335 118.59523325680556 H 0.0 **** 0.06
21466 C 68.13765891305209 58.964595161939 139.07806676723013 C 0.0 **** -0.24
21467 H 67.41638655367795 58.983625600400245 139.8946418656509 H 0.0 **** 0.06
21468 H 67.6516943795685 58.59755913148217 138.17327895630413 H 0.0 **** 0.06
21469 H 68.96455966306806 58.303454217529236 139.34051441855038 H 0.0 **** 0.06
21470 H 68.5179953570983 59.97074871079744 138.90403778615843 H 0.0 **** 0.06
21471 C 139.38425545586682 70.55389137694193 121.5497363272288 C 0.0 **** -0.24
21472 H 139.8487800163992 69.75505036083204 120.9720964411141 H 0.0 **** 0.06
21473 H 140.1435392182267 71.27943200959473 121.84218952039208 H 0.0 **** 0.06
21474 H 138.91924517305688 70.13426399780923 122.4420676651946 H 0.0 **** 0.06
21475 H 138.62493250453056 71.0474509077659 120.94202126065466 H 0.0 **** 0.06
21476 C 29.516351270720918 2.866210154881685 5.128907066807471 C 0.0 **** -0.24
21477 H 30.30897128640862 3.446886863334157 4.657239855037972 H 0.0 **** 0.06
21478 H 29.27175119848397 3.304882479863579 6.096188971633865 H 0.0 **** 0.06
21479 H 29.854517567756147 1.8389979400570269 5.270545982223609 H 0.0 **** 0.06
21480 H 28.631863140798202 2.872652708573355 4.4913396815564965 H 0.0 **** 0.06
21481 C 51.43384832087685 130.55682142914662 125.0449231847386 C 0.0 **** -0.24
21482 H 51.440337861102535 131.58507090393874 125.40778244030315 H 0.0 **** 0.06
21483 H 52.05356669103429 129.9390194599842 125.69422337022739 H 0.0 **** 0.06
21484 H 51.827813172765175 130.52784495901113 124.02927071758143 H 0.0 **** 0.06
21485 H 50.41153459109648 130.17746456611673 125.04938933454281 H 0.0 **** 0.06
21486 C 124.09697374112733 27.164831618287764 0.6161230131186244 C 0.0 **** -0.24
21487 H 123.78174710106974 28.197608393873708 0.4661189769520604 H 0.0 **** 0.06
21488 H 124.21094163664519 26.675468915979167 -0.35050323588583865 H 0.0 **** 0.06
21489 H 123.3440679707872 26.637493734286778 1.2040666021794664 H 0.0 **** 0.06
21490 H 125.04833179663096 27.148853501777012 1.1472825171570946 H 0.0 **** 0.06
21491 C 27.06942974089403 87.40871362720387 80.82091417985896 C 0.0 **** -0.24
21492 H 26.462292717792934 86.53521617197694 80.58190841626123 H 0.0 **** 0.06
21493 H 27.56034022553998 87.76897033731925 79.91605343997708 H 0.0 **** 0.06
21494 H 27.823072658709556 87.13657329050497 81.55865655179048 H 0.0 **** 0.06
21495 H 26.43134396821116 88.19451663840889 81.22586614438418 H 0.0 **** 0.06
21496 C 54.058184810673524 12.926173638406361 22.66495277876242 C 0.0 **** -0.24
21497 H 54.6301232229259 13.379265405600457 23.47494241844879 H 0.0 **** 0.06
21498 H 53.345001080412615 13.653364772805766 22.274325076881723 H 0.0 **** 0.06
21499 H 53.52050761778521 12.05612252424563 23.042305674542938 H 0.0 **** 0.06
21500 H 54.73672437721454 12.619169496803494 21.869436352536667 H 0.0 **** 0.06
21501 C 114.85229149616606 109.73759172687762 36.1475555553734 C 0.0 **** -0.24
21502 H 115.16368078557065 110.09075436742576 37.129595100522806 H 0.0 **** 0.06
21503 H 113.77677592871169 109.56159279582421 36.14827646606824 H 0.0 **** 0.06
21504 H 115.37169271145677 108.80752768687655 35.91390365249697 H 0.0 **** 0.06
21505 H 115.09743540440235 110.48868314126442 35.39720096494642 H 0.0 **** 0.06
21506 C 118.91993391923744 61.91771425880262 55.0204879429872 C 0.0 **** -0.24
21507 H 118.73352524480221 60.93855436186547 54.57829495392991 H 0.0 **** 0.06
21508 H 118.60485611499114 61.91134142372462 56.063409422538854 H 0.0 **** 0.06
21509 H 118.35695461690447 62.674894566248526 54.47436414586812 H 0.0 **** 0.06
21510 H 119.9850397474158 62.14512983553587 54.963106011973736 H 0.0 **** 0.06
21511 C 60.502219076995274 88.00203213084077 94.55378857217055 C 0.0 **** -0.24
21512 H 60.85215010510048 88.93595172583181 94.99201260247335 H 0.0 **** 0.06
21513 H 60.33716707634254 88.14246135825002 93.48489455192825 H 0.0 **** 0.06
21514 H 59.56795050561274 87.70539771889142 95.02959538276819 H 0.0 **** 0.06
21515 H 61.25151386795039 87.2255220763083 94.70677005889505 H 0.0 **** 0.06
21516 C 113.3757240057502 21.15807461458664 31.652783324214795 C 0.0 **** -0.24
21517 H 114.17703535026838 21.39155865972205 30.95084723038918 H 0.0 **** 0.06
21518 H 112.7826601633853 22.054612877913485 31.83690386797634 H 0.0 **** 0.06
21519 H 113.80520721447702 20.806686735934164 32.59064877468317 H 0.0 **** 0.06
21520 H 112.7390077932951 20.380251133739534 31.23065654711266 H 0.0 **** 0.06
21521 C 52.25816550471512 10.512242708932206 119.28079655740576 C 0.0 **** -0.24
21522 H 51.81776681979639 9.520016175824082 119.38322428327253 H 0.0 **** 0.06
21523 H 52.11975441389947 11.067857721326334 120.20852024652179 H 0.0 **** 0.06
21524 H 51.77049691718858 11.04268691606336 118.46292175729415 H 0.0 **** 0.06
21525 H 53.322903092174315 10.417083097480543 119.0689773132495 H 0.0 **** 0.06
21526 C 125.15621220852822 144.6096301854737 143.12434749921715 C 0.0 **** -0.24
21527 H 124.63929486259403 145.4125123766151 142.59909087217662 H 0.0 **** 0.06
21528 H 125.99148271437448 144.2581417083906 142.51804315272906 H 0.0 **** 0.06
21529 H 124.46375879191606 143.78680647534526 143.3005583998951 H 0.0 **** 0.06
21530 H 125.53008668120731 144.98147190985878 144.0788146535819 H 0.0 **** 0.06
21531 C 132.4433053962615 108.42481244230832 67.09754321310675 C 0.0 **** -0.24
21532 H 133.47715271172063 108.60460068635005 66.80231309647365 H 0.0 **** 0.06
21533 H 132.10817706816636 109.22762821863371 67.75462597072726 H 0.0 **** 0.06
21534 H 132.3780335695506 107.47201677654202 67.62358592512936 H 0.0 **** 0.06
21535 H 131.81331625413014 108.39276987405934 66.20942171882865 H 0.0 **** 0.06
21536 C 107.92817104157031 119.99050013223575 61.85670555622801 C 0.0 **** -0.24
21537 H 106.89905715718787 120.31558901043633 62.009730828107365 H 0.0 **** 0.06
21538 H 108.14598187335967 119.1525412180215 62.51924326581286 H 0.0 **** 0.06
21539 H 108.60592370632641 120.81475151975013 62.076384466857235 H 0.0 **** 0.06
21540 H 108.05934953092536 119.67856202988577 60.82002683584358 H 0.0 **** 0.06
21541 C 122.8620249859382 73.25282830483283 110.30328962217034 C 0.0 **** -0.24
21542 H 123.49307360860007 74.05117120813284 110.69349358068469 H 0.0 **** 0.06
21543 H 123.0015720477927 72.35296987336321 110.90407111906505 H 0.0 **** 0.06
21544 H 123.13655704950692 73.04514835902725 109.26871380808713 H 0.0 **** 0.06
21545 H 121.81760006547823 73.5613960636206 110.34721472052665 H 0.0 **** 0.06
21546 C 50.35582197188066 56.63923319081118 125.12817726889173 C 0.0 **** -0.24
21547 H 49.78084920870157 55.82071761955541 125.56180787117947 H 0.0 **** 0.06
21548 H 49.77134257221336 57.11620490040116 124.34026179384003 H 0.0 **** 0.06
21549 H 51.282398419673456 56.24863249887488 124.70739099843675 H 0.0 **** 0.06
21550 H 50.5875577405843 57.37063198264815 125.90286834754633 H 0.0 **** 0.06
21551 C 34.66347036553225 17.42900587250716 71.36195106515333 C 0.0 **** -0.24
21552 H 34.56489653492679 18.46882681576175 71.04983487908362 H 0.0 **** 0.06
21553 H 34.85845244055196 17.388891168010417 72.43409039441039 H 0.0 **** 0.06
21554 H 35.490615710831776 16.965389688152364 70.82464342984662 H 0.0 **** 0.06
21555 H 33.74011666916266 16.89348593342676 71.14051426698721 H 0.0 **** 0.06
21556 C 11.660451244205653 120.73676567418876 61.73621480146214 C 0.0 **** -0.24
21557 H 12.678649634393516 120.3464808426286 61.74282753228235 H 0.0 **** 0.06
21558 H 11.465465865402443 121.22517485145964 60.780364307803794 H 0.0 **** 0.06
21559 H 11.54298434218299 121.45839619027889 62.543712018803234 H 0.0 **** 0.06
21560 H 10.956559116103264 119.91589208969042 61.87565064527894 H 0.0 **** 0.06
21561 C 0.8416379899841502 127.3298785935046 65.94074834691469 C 0.0 **** -0.24
21562 H 1.5037946668171003 127.41922757096823 66.80237774763891 H 0.0 **** 0.06
21563 H 0.6626963325473127 128.31751161494938 65.51627364396175 H 0.0 **** 0.06
21564 H -0.1055199242475453 126.8924478487166 66.25582311423427 H 0.0 **** 0.06
21565 H 1.3069450531746156 126.69004894278922 65.19117631162956 H 0.0 **** 0.06
21566 C 43.463990718763014 118.38938511736278 74.62789927920895 C 0.0 **** -0.24
21567 H 43.45852184888078 119.40787469268385 75.01530338812452 H 0.0 **** 0.06
21568 H 43.90047994164432 118.38251873821146 73.6291285807853 H 0.0 **** 0.06
21569 H 42.442114419900264 118.01361842021596 74.58071775585195 H 0.0 **** 0.06
21570 H 44.05428965514815 117.75255353216237 75.28730706337811 H 0.0 **** 0.06
21571 C 45.33095862701269 119.06755615679974 59.13773074001466 C 0.0 **** -0.24
21572 H 45.21143165806363 118.57721400195759 58.17175156852545 H 0.0 **** 0.06
21573 H 45.80164011651354 118.37873859016203 59.83953000658886 H 0.0 **** 0.06
21574 H 44.35250379482292 119.36181282561621 59.51894865988845 H 0.0 **** 0.06
21575 H 45.95636265961154 119.9524308734015 59.02224307500535 H 0.0 **** 0.06
21576 C 90.08813020241347 103.48876113182784 130.14665859163497 C 0.0 **** -0.24
21577 H 90.3494290150192 102.55438401474801 129.64927819673986 H 0.0 **** 0.06
21578 H 90.21513582425577 103.3741480020348 131.22281390906542 H 0.0 **** 0.06
21579 H 89.04982872608137 103.73727785619901 129.92695338388066 H 0.0 **** 0.06
21580 H 90.73695476632224 104.28641000579903 129.78543312463646 H 0.0 **** 0.06
21581 C 35.760348074770036 128.31964362859765 22.44633168826195 C 0.0 **** -0.24
21582 H 35.806389976710456 127.85424126464538 23.430701365704067 H 0.0 **** 0.06
21583 H 36.64294585559646 128.9438603697176 22.298769449967125 H 0.0 **** 0.06
21584 H 34.86359756669018 128.93543993982485 22.377517985113883 H 0.0 **** 0.06
21585 H 35.72989725990952 127.54579274189616 21.67950156608299 H 0.0 **** 0.06
21586 C 104.0561842859915 31.60756553919788 22.832306503943983 C 0.0 **** -0.24
21587 H 104.18633458237899 31.149634432595178 21.85197804873087 H 0.0 **** 0.06
21588 H 103.87076285851691 30.82966232853306 23.573925979924155 H 0.0 **** 0.06
21589 H 103.20786646134579 32.29149804837141 22.80340851434528 H 0.0 **** 0.06
21590 H 104.9584134550917 32.15799887207527 23.098501090764785 H 0.0 **** 0.06
21591 C 126.60980992145652 119.28969114764905 63.737814873277586 C 0.0 **** -0.24
21592 H 127.34023265676609 120.03254122308661 64.05937096096054 H 0.0 **** 0.06
21593 H 125.78960247664159 119.78774796955682 63.219853398875415 H 0.0 **** 0.06
21594 H 126.22214320637089 118.7620008028891 64.60943309827519 H 0.0 **** 0.06
21595 H 127.08757776003418 118.57789346688068 63.0645735691856 H 0.0 **** 0.06
21596 C 42.63326889826658 107.87459094400059 137.96941181938203 C 0.0 **** -0.24
21597 H 42.14359628982123 108.58549390103543 138.63461524633212 H 0.0 **** 0.06
21598 H 43.48618086935522 108.35467509982819 137.4883335253892 H 0.0 **** 0.06
21599 H 41.92672641040207 107.54312594633687 137.20858690070403 H 0.0 **** 0.06
21600 H 42.97615340746091 107.01467839922465 138.5452916239752 H 0.0 **** 0.06
21601 C 142.22814761402338 97.49377290655457 83.30355765774604 C 0.0 **** -0.24
21602 H 141.28200096909353 98.02200744624781 83.4222535002483 H 0.0 **** 0.06
21603 H 142.79114558241778 97.54394396175962 84.23538706036143 H 0.0 **** 0.06
21604 H 142.80499332820474 97.95761230989228 82.50402974425307 H 0.0 **** 0.06
21605 H 142.03251246551423 96.45105635922596 83.05270709963266 H 0.0 **** 0.06
21606 C 136.26649817671682 118.60299577464717 60.73056767131149 C 0.0 **** -0.24
21607 H 136.34520831717907 119.39164013183078 61.4796442622811 H 0.0 **** 0.06
21608 H 136.07595622796052 119.04700794020071 59.75433317670385 H 0.0 **** 0.06
21609 H 135.4453621531608 117.93543924776235 60.9935730948916 H 0.0 **** 0.06
21610 H 137.1977923703697 118.03874345927038 60.69839181524139 H 0.0 **** 0.06
21611 C 11.954266273188466 3.547305343326144 33.72489306861294 C 0.0 **** -0.24
21612 H 12.303844356624865 3.5349508063382302 32.69200659184648 H 0.0 **** 0.06
21613 H 10.910110750077905 3.8585849473369933 33.751447494994295 H 0.0 **** 0.06
21614 H 12.557411200352988 4.2472569200997725 34.303219867863305 H 0.0 **** 0.06
21615 H 12.047649737104933 2.5486769247254415 34.151834181001874 H 0.0 **** 0.06
21616 C 69.06476465027494 44.80663839600629 23.223348482007452 C 0.0 **** -0.24
21617 H 69.60739414393711 44.35698954419493 24.054063823543657 H 0.0 **** 0.06
21618 H 69.63784321836724 44.681024995367466 22.303852319256634 H 0.0 **** 0.06
21619 H 68.91909221727477 45.87013215291151 23.418467840821435 H 0.0 **** 0.06
21620 H 68.0946633887124 44.32061959519618 23.116693948643046 H 0.0 **** 0.06
21621 C 98.61604011217288 36.41587981925883 20.892455233693653 C 0.0 **** -0.24
21622 H 97.55227338831767 36.3049874557897 21.097699104458812 H 0.0 **** 0.06
21623 H 99.02593869211387 37.21007503396342 21.516748457354794 H 0.0 **** 0.06
21624 H 98.75895443934748 36.66952705888613 19.84167480742829 H 0.0 **** 0.06
21625 H 99.1277512796039 35.479360395938045 21.112584549032363 H 0.0 **** 0.06
21626 C 118.78573470603641 91.24326660036087 115.03641420146626 C 0.0 **** -0.24
21627 H 119.682101592648 91.84236334141949 115.19559767922728 H 0.0 **** 0.06
21628 H 118.45373913110126 91.35279229592223 114.00422820281987 H 0.0 **** 0.06
21629 H 117.99859429215934 91.58361486010851 115.70988132457028 H 0.0 **** 0.06
21630 H 119.00836241670402 90.19603083221736 115.23877280894457 H 0.0 **** 0.06
21631 C 17.999977176988125 109.08386555645076 28.149996194819494 C 0.0 **** -0.24
21632 H 18.791641835209987 109.75320202053773 27.813229709658458 H 0.0 **** 0.06
21633 H 18.130831194200198 108.10537284944267 27.6865501898082 H 0.0 **** 0.06
21634 H 17.031968443671644 109.49508215895274 27.86531592801282 H 0.0 **** 0.06
21635 H 18.047490870005447 108.9819831386613 29.2335201933642 H 0.0 **** 0.06
21636 C 134.42370206587594 129.81304922740674 48.62366959693321 C 0.0 **** -0.24
21637 H 134.81760793239863 129.94215574665964 47.615586976500595 H 0.0 **** 0.06
21638 H 134.7607127303093 130.63663479998579 49.25348507157891 H 0.0 **** 0.06
21639 H 134.7842600890158 128.8695540046943 49.03553443887799 H 0.0 **** 0.06
21640 H 133.33497785899186 129.80231294191688 48.58981456000318 H 0.0 **** 0.06
21641 C 134.09463305064523 44.56665150383225 119.8823750992109 C 0.0 **** -0.24
21642 H 133.56730821223363 44.444730723874756 118.93592131734154 H 0.0 **** 0.06
21643 H 134.978440945598 45.1863357909522 119.72755930929098 H 0.0 **** 0.06
21644 H 134.39707030031875 43.588819697161625 120.25808455335992 H 0.0 **** 0.06
21645 H 133.4363552847294 45.04657740348412 120.60604655622181 H 0.0 **** 0.06
21646 C 136.80797449492835 37.423268101594374 2.5494380932137517 C 0.0 **** -0.24
21647 H 136.08664478785454 36.812797958256084 3.0926669156975777 H 0.0 **** 0.06
21648 H 136.30221093238973 38.285858088872686 2.116982805924266 H 0.0 **** 0.06
21649 H 137.2587218520249 36.82924363807716 1.7534162828718536 H 0.0 **** 0.06
21650 H 137.58528963875648 37.76233475956579 3.2346029553871176 H 0.0 **** 0.06
21651 C 10.348068450597623 124.02307499819216 86.84442940593016 C 0.0 **** -0.24
21652 H 9.378027423454625 124.51711236671105 86.78365598492559 H 0.0 **** 0.06
21653 H 10.205015105868654 122.94287214765757 86.86218940367218 H 0.0 **** 0.06
21654 H 10.857932088696657 124.33664547820428 87.75558665809882 H 0.0 **** 0.06
21655 H 10.950520666974796 124.29681486374614 85.97894707871558 H 0.0 **** 0.06
21656 C 93.03662069507763 141.024154789503 16.59969707394015 C 0.0 **** -0.24
21657 H 93.54177053796542 140.09249975774193 16.854968388416637 H 0.0 **** 0.06
21658 H 93.49596774107157 141.4541939488364 15.709090789804236 H 0.0 **** 0.06
21659 H 93.125475653099 141.72476131765222 17.430053739145137 H 0.0 **** 0.06
21660 H 91.98247873087846 140.82402143564494 16.404940034759136 H 0.0 **** 0.06
21661 C 74.51659678083055 52.32654851237861 12.345323546291269 C 0.0 **** -0.24
21662 H 75.41385168317325 51.871430493765175 11.925793892733736 H 0.0 **** 0.06
21663 H 74.16248223211412 53.112576683930286 11.677272231873047 H 0.0 **** 0.06
21664 H 74.74920690579165 52.75529474351468 13.320448218270172 H 0.0 **** 0.06
21665 H 73.74263688175918 51.568319384385774 12.456909769206788 H 0.0 **** 0.06
21666 C 139.8241426055834 56.453594804055314 32.761947262238074 C 0.0 **** -0.24
21667 H 138.77359298120518 56.62110631165268 32.995842975236414 H 0.0 **** 0.06
21668 H 140.3355330071646 56.06707449491765 33.64440172086806 H 0.0 **** 0.06
21669 H 140.2834363757267 57.39383465381883 32.45763470507142 H 0.0 **** 0.06
21670 H 139.9049090855359 55.73046364859218 31.950669885037186 H 0.0 **** 0.06
21671 C 57.883848224872224 51.884055479071804 81.39593376572024 C 0.0 **** -0.24
21672 H 57.32483894396415 52.779888056375256 81.66390290104346 H 0.0 **** 0.06
21673 H 58.890717407729426 51.94738180395251 81.80948201305064 H 0.0 **** 0.06
21674 H 57.94039567290773 51.80178448993709 80.3110076299451 H 0.0 **** 0.06
21675 H 57.37889603080927 51.00676846480505 81.80058507689371 H 0.0 **** 0.06
21676 C 132.53812228057566 110.86894641320002 97.59571639764428 C 0.0 **** -0.24
21677 H 132.0976491400281 110.44262032995026 98.49759855508123 H 0.0 **** 0.06
21678 H 133.59235118751988 110.5985253952558 97.54365159729647 H 0.0 **** 0.06
21679 H 132.44192878433583 111.95427928820062 97.62359564997581 H 0.0 **** 0.06
21680 H 132.01894249305812 110.48117221874317 96.71933325499404 H 0.0 **** 0.06
21681 C 65.04088622599069 108.74690834167617 139.02902539534693 C 0.0 **** -0.24
21682 H 64.69890257780749 107.71331840051536 138.98473232688906 H 0.0 **** 0.06
21683 H 65.38908287218634 108.9712481778765 140.0376103748767 H 0.0 **** 0.06
21684 H 64.21843922925093 109.41341209158784 138.77074927838504 H 0.0 **** 0.06
21685 H 65.85925591449796 108.88981256448713 138.32236607552417 H 0.0 **** 0.06
21686 C 25.956249368701236 53.92545318302356 15.149557594946373 C 0.0 **** -0.24
21687 H 25.53686037244603 53.245134670034545 14.4078902050706 H 0.0 **** 0.06
21688 H 26.588892088207132 54.66008662684264 14.651140300292866 H 0.0 **** 0.06
21689 H 26.55236683556214 53.35845229274622 15.864905673109206 H 0.0 **** 0.06
21690 H 25.14813865401058 54.435162509107016 15.672409667662293 H 0.0 **** 0.06
21691 C 103.9503981787575 104.52251156024116 47.88885223690549 C 0.0 **** -0.24
21692 H 103.06730908417563 104.11433233902048 47.39709795016286 H 0.0 **** 0.06
21693 H 104.69418626059283 104.78758862877085 47.13769292152524 H 0.0 **** 0.06
21694 H 104.36651179393465 103.7772716072846 48.56631126975536 H 0.0 **** 0.06
21695 H 103.67074455187085 105.4117347320098 48.45469756910818 H 0.0 **** 0.06
21696 C 66.76850389993547 29.596318771205034 22.115562171025402 C 0.0 **** -0.24
21697 H 66.15117105816411 30.086096987067528 21.363403080118644 H 0.0 **** 0.06
21698 H 67.08562208740838 28.620944785577223 21.746356882097345 H 0.0 **** 0.06
21699 H 66.1918314272343 29.46903032957826 23.032049178281497 H 0.0 **** 0.06
21700 H 67.6458708763215 30.21006525650852 22.320277457361826 H 0.0 **** 0.06
21701 C 144.43456333865052 124.66412436406455 5.337160836321459 C 0.0 **** -0.24
21702 H 144.2250237813278 124.2085618264718 4.370026519133546 H 0.0 **** 0.06
21703 H 143.6747013285818 125.41427991993083 5.557029615279589 H 0.0 **** 0.06
21704 H 145.41531696339183 125.1375742816359 5.31160036570725 H 0.0 **** 0.06
21705 H 144.42165751931847 123.895978303764 6.110745343744952 H 0.0 **** 0.06
21706 C 4.756093161134444 99.58597410934286 51.15737378189385 C 0.0 **** -0.24
21707 H 4.286260551519959 99.07974106514641 50.31380615391063 H 0.0 **** 0.06
21708 H 5.668699766933081 100.08023408844898 50.82194984079666 H 0.0 **** 0.06
21709 H 5.000713925746165 98.85614335547368 51.929610585572405 H 0.0 **** 0.06
21710 H 4.069013453151626 100.32839328694442 51.56340596916898 H 0.0 **** 0.06
21711 C 132.85162533735138 77.10260563308566 60.88847495284861 C 0.0 **** -0.24
21712 H 132.36998568259636 76.5360091566051 61.685043560832185 H 0.0 **** 0.06
21713 H 133.07875043257917 78.1081515713505 61.24400483568823 H 0.0 **** 0.06
21714 H 132.1823115109422 77.16276411501019 60.03077639397995 H 0.0 **** 0.06
21715 H 133.77468797876315 76.60354326632829 60.5947165828525 H 0.0 **** 0.06
21716 C 26.785304262830337 90.44283360465217 22.704924049153355 C 0.0 **** -0.24
21717 H 27.042408719352906 91.50176467815189 22.75069782903168 H 0.0 **** 0.06
21718 H 26.803351602663916 90.1097981311035 21.666409901308654 H 0.0 **** 0.06
21719 H 25.787557092763215 90.29409602625815 23.118322926875088 H 0.0 **** 0.06
21720 H 27.50863647015673 89.8685818420797 23.28416004970436 H 0.0 **** 0.06
21721 C 125.67911555361404 51.647019593434024 27.496723868497554 C 0.0 **** -0.24
21722 H 126.1189517673958 51.7092788908426 28.492647474565814 H 0.0 **** 0.06
21723 H 124.60670193567911 51.833039357292805 27.560806671070964 H 0.0 **** 0.06
21724 H 125.8525365505765 50.65282258560616 27.08509982081 H 0.0 **** 0.06
21725 H 126.14028481910997 52.393535718242546 26.849110144411924 H 0.0 **** 0.06
21726 C 123.26352927188914 57.04324721631184 138.32338673364373 C 0.0 **** -0.24
21727 H 123.18459772327655 57.594986551807665 139.26038803313236 H 0.0 **** 0.06
21728 H 124.31318381459845 56.952199724893944 138.04281299724283 H 0.0 **** 0.06
21729 H 122.72308989767181 57.57663419239333 137.5420382400829 H 0.0 **** 0.06
21730 H 122.83288343567615 56.05032033810977 138.45043888234758 H 0.0 **** 0.06
21731 C 138.61214717117272 0.21795356861900927 18.406699389353406 C 0.0 **** -0.24
21732 H 139.38585683409914 -0.5429708020029125 18.50463466256693 H 0.0 **** 0.06
21733 H 137.83292778315186 0.04154174590274806 19.14763992366008 H 0.0 **** 0.06
21734 H 138.18092210881682 0.1703319696658241 17.406235461400087 H 0.0 **** 0.06
21735 H 139.0496951183269 1.2035376914591893 18.566300879536954 H 0.0 **** 0.06
21736 C 14.977270139947827 117.88512018105395 49.106838682902094 C 0.0 **** -0.24
21737 H 15.224133148969571 118.72052046664611 49.762414716953174 H 0.0 **** 0.06
21738 H 15.402588869648014 116.96687310705961 49.512883289489196 H 0.0 **** 0.06
21739 H 15.388872034178526 118.0692757379832 48.114590478829086 H 0.0 **** 0.06
21740 H 13.894219215511427 117.78562208956414 49.03855473396095 H 0.0 **** 0.06
21741 C 57.809073727372464 14.128061591893612 55.433416617202624 C 0.0 **** -0.24
21742 H 56.94076145783515 13.550563017212461 55.74845159107011 H 0.0 **** 0.06
21743 H 58.14240205553557 13.777875998212004 54.45629063250138 H 0.0 **** 0.06
21744 H 58.61259149129749 14.000979875514801 56.15869333982181 H 0.0 **** 0.06
21745 H 57.540519027552406 15.183049142682655 55.369255983889786 H 0.0 **** 0.06
21746 C 87.32461288815043 34.685771738288736 13.33579628680775 C 0.0 **** -0.24
21747 H 88.28905174929557 34.196603070675394 13.47161080805455 H 0.0 **** 0.06
21748 H 87.02962401099424 35.17278093671314 14.265778298131181 H 0.0 **** 0.06
21749 H 86.57507588124182 33.94395666791718 13.060145108609674 H 0.0 **** 0.06
21750 H 87.40474455711612 35.4318523850778 12.544900907448266 H 0.0 **** 0.06
21751 C 43.81845105128622 99.81231234242557 113.96425868610766 C 0.0 **** -0.24
21752 H 44.0178042013419 99.33242431076313 114.92280692572001 H 0.0 **** 0.06
21753 H 43.62075005151257 99.05070301683635 113.21012114188284 H 0.0 **** 0.06
21754 H 44.686072318640356 100.40176905520623 113.6678552183838 H 0.0 **** 0.06
21755 H 42.95105667584659 100.46516151693896 114.05886219782099 H 0.0 **** 0.06
21756 C 73.31724264079219 13.173587277903003 104.37562240646673 C 0.0 **** -0.24
21757 H 73.24921875972538 12.830293509657992 103.34220035387793 H 0.0 **** 0.06
21758 H 73.69590707031253 14.195672535818403 104.39384008424871 H 0.0 **** 0.06
21759 H 73.99542963406216 12.524572748790455 104.92896263309859 H 0.0 **** 0.06
21760 H 72.32896411898471 13.143632694424163 104.83378957766358 H 0.0 **** 0.06
21761 C 81.96995048532938 74.0731061201044 128.17481378123676 C 0.0 **** -0.24
21762 H 80.94196931291361 73.86579810939224 127.87861120507385 H 0.0 **** 0.06
21763 H 82.1736116806544 75.13728871195326 128.05806874772304 H 0.0 **** 0.06
21764 H 82.6511778260126 73.50094499559813 127.54497105799825 H 0.0 **** 0.06
21765 H 82.11200048919233 73.78732817415982 129.2167209884963 H 0.0 **** 0.06
21766 C 136.00921710799759 36.614154249617236 59.61444197506508 C 0.0 **** -0.24
21767 H 136.23577088436588 36.913273486955916 60.63777474626322 H 0.0 **** 0.06
21768 H 135.49186780022518 37.42692774765588 59.104588235836985 H 0.0 **** 0.06
21769 H 135.37149041397697 35.72969628681356 59.62878487195499 H 0.0 **** 0.06
21770 H 136.93584802558217 36.38687597487458 59.088943590098225 H 0.0 **** 0.06
21771 C 98.95742903083152 56.50822241136436 11.270258007304633 C 0.0 **** -0.24
21772 H 99.78725479090399 56.4175863814672 11.970863599426224 H 0.0 **** 0.06
21773 H 98.91473749774701 57.52785664346936 10.887967095560185 H 0.0 **** 0.06
21774 H 98.024070812833 56.271677442815275 11.781963829402947 H 0.0 **** 0.06
21775 H 99.10352635141764 55.81503964300768 10.441803347980262 H 0.0 **** 0.06
21776 C 33.91018127341133 95.5382320828658 89.52192520771376 C 0.0 **** -0.24
21777 H 34.81444173350779 96.14636954005941 89.54847243267751 H 0.0 **** 0.06
21778 H 34.06087510136574 94.69406444827518 88.84834201879742 H 0.0 **** 0.06
21779 H 33.076095207619424 96.14366812990009 89.16800643399489 H 0.0 **** 0.06
21780 H 33.69271050212722 95.16904563822236 90.52406727323059 H 0.0 **** 0.06
21781 C 48.63734249295632 142.1295180289957 25.834846996737213 C 0.0 **** -0.24
21782 H 47.67061544275546 142.3636818529846 26.28238814521825 H 0.0 **** 0.06
21783 H 48.81978806268708 142.7991304979107 24.99433604915214 H 0.0 **** 0.06
21784 H 48.633547605100176 141.0977065211677 25.48363694135753 H 0.0 **** 0.06
21785 H 49.4221749860894 142.25697623656325 26.579407399174613 H 0.0 **** 0.06
21786 C 23.037873023786062 64.50071476276909 102.91930751125727 C 0.0 **** -0.24
21787 H 22.954587572246396 65.0074119091936 101.9579816457387 H 0.0 **** 0.06
21788 H 23.56066585116747 63.552746415703936 102.7857985514554 H 0.0 **** 0.06
21789 H 22.041288287841155 64.313247321868 103.31772396876715 H 0.0 **** 0.06
21790 H 23.59584801096088 65.12899482846593 103.61349333882688 H 0.0 **** 0.06
21791 C 125.62298793330238 112.32247082613445 67.0335654541816 C 0.0 **** -0.24
21792 H 126.58214520181497 112.7481556757978 67.32688371335536 H 0.0 **** 0.06
21793 H 125.54257017425326 111.30773384828309 67.42437714889249 H 0.0 **** 0.06
21794 H 125.55342630216208 112.29985184856669 65.9454259804273 H 0.0 **** 0.06
21795 H 124.81527628430192 112.93277137678378 67.43617069047392 H 0.0 **** 0.06
21796 C 44.64506996437649 144.53966324849551 137.86302621354002 C 0.0 **** -0.24
21797 H 43.63453738183853 144.14012909709243 137.7736881604498 H 0.0 **** 0.06
21798 H 44.95675749466022 144.50928973936152 138.90644663352924 H 0.0 **** 0.06
21799 H 44.659535181298736 145.57035471736174 137.50795048608046 H 0.0 **** 0.06
21800 H 45.32709452704614 143.93906758388192 137.26111821163144 H 0.0 **** 0.06
21801 C 1.445156080879169 48.509315852598235 134.45018192016758 C 0.0 **** -0.24
21802 H 1.8483507768126337 47.4999093576327 134.5327559447339 H 0.0 **** 0.06
21803 H 0.6820010385543718 48.53303833872528 133.6718185392808 H 0.0 **** 0.06
21804 H 2.246758916541257 49.201463778201315 134.19428155578143 H 0.0 **** 0.06
21805 H 1.0028260293127111 48.80173841947803 135.40240776285603 H 0.0 **** 0.06
21806 C 26.58668973303716 7.519889322011654 126.16516005530076 C 0.0 **** -0.24
21807 H 26.790232891420636 6.624965646439357 126.75246888101486 H 0.0 **** 0.06
21808 H 26.346338919020923 7.235339248966962 125.14116366675029 H 0.0 **** 0.06
21809 H 27.466933690252752 8.163150169472413 126.1661483477572 H 0.0 **** 0.06
21810 H 25.74405503384152 8.056689161192175 126.60074539126595 H 0.0 **** 0.06
21811 C 12.350265283937567 1.557160331637629 12.438292889783582 C 0.0 **** -0.24
21812 H 11.321427625311294 1.5900857637392285 12.799495007660767 H 0.0 **** 0.06
21813 H 12.689781674649758 0.5216521166159644 12.401669292396747 H 0.0 **** 0.06
21814 H 12.989331054495956 2.1263868848934635 13.113155066774496 H 0.0 **** 0.06
21815 H 12.397514056645079 1.9913585633142432 11.43935326746653 H 0.0 **** 0.06
21816 C 116.68467827981236 13.949554734380378 52.498479152214244 C 0.0 **** -0.24
21817 H 115.9816464322201 14.669721075950463 52.07895133088276 H 0.0 **** 0.06
21818 H 116.19669072767535 13.38672321718024 53.29386566488584 H 0.0 **** 0.06
21819 H 117.5480699026909 14.47831930566042 52.90252845421659 H 0.0 **** 0.06
21820 H 117.0112486232883 13.264339589134494 51.71590651461422 H 0.0 **** 0.06
21821 C 117.52798854166207 124.33242914027267 94.53421707806541 C 0.0 **** -0.24
21822 H 117.22487688056549 125.2129146561673 95.09970573533246 H 0.0 **** 0.06
21823 H 117.50073168644263 123.45679155827416 95.1838730238726 H 0.0 **** 0.06
21824 H 118.5405723111839 124.4727790814779 94.15648981847832 H 0.0 **** 0.06
21825 H 116.8448204969348 124.18527279096236 93.69730647465016 H 0.0 **** 0.06
21826 C 138.87728166423784 108.67536916422296 45.05913088750009 C 0.0 **** -0.24
21827 H 138.48828024053864 107.70416570581057 45.36621827618018 H 0.0 **** 0.06
21828 H 139.7826057130403 108.53432652353462 44.46888498321164 H 0.0 **** 0.06
21829 H 139.1072987345027 109.26935162238993 45.94331743867417 H 0.0 **** 0.06
21830 H 138.12864882050866 109.19286352407613 44.45849007190566 H 0.0 **** 0.06
21831 C 38.05475166759447 87.01169510183988 42.31888945990882 C 0.0 **** -0.24
21832 H 37.82696268176463 86.6302178803343 43.31392974969606 H 0.0 **** 0.06
21833 H 37.26234213112832 87.6892050048303 41.99876384153711 H 0.0 **** 0.06
21834 H 38.127309732159745 86.18001156553167 41.61777339417877 H 0.0 **** 0.06
21835 H 39.00348868859717 87.54920412557394 42.34450350790314 H 0.0 **** 0.06
21836 C 38.80315778899384 100.09994229240105 27.182548314690294 C 0.0 **** -0.24
21837 H 39.17176924965984 100.93298085947198 26.582563058329463 H 0.0 **** 0.06
21838 H 39.64740858875374 99.55051813246781 27.59850571168451 H 0.0 **** 0.06
21839 H 38.20991170086312 99.43611509598425 26.554881713835528 H 0.0 **** 0.06
21840 H 38.18378212505677 100.48426271789508 27.993208237945595 H 0.0 **** 0.06
21841 C 84.77686069128674 72.27245623170383 95.07396313919513 C 0.0 **** -0.24
21842 H 84.4256641393909 72.94071370168318 94.28734833068461 H 0.0 **** 0.06
21843 H 85.21363681736375 71.3798715986909 94.62388728997561 H 0.0 **** 0.06
21844 H 83.93799968352624 71.98671375366749 95.70815894318834 H 0.0 **** 0.06
21845 H 85.52931586026045 72.78314666341801 95.67382507530446 H 0.0 **** 0.06
21846 C 82.1567809441571 44.07754270344999 34.09175021454484 C 0.0 **** -0.24
21847 H 81.26690561237251 43.45043302564298 34.052403286616645 H 0.0 **** 0.06
21848 H 82.6729303068044 44.03797123527207 33.13158360967151 H 0.0 **** 0.06
21849 H 82.82194037127084 43.71592579899904 34.876304275607225 H 0.0 **** 0.06
21850 H 81.86675228501525 45.10595334814428 34.306591575606916 H 0.0 **** 0.06
21851 C 131.02088439706517 86.41978345035974 0.5893126711433183 C 0.0 **** -0.24
21852 H 131.16214266020447 87.19269990974507 -0.16616012513526357 H 0.0 **** 0.06
21853 H 129.95649596141482 86.30217931090036 0.794640351366013 H 0.0 **** 0.06
21854 H 131.53764843073657 86.70725464733076 1.5042558847952137 H 0.0 **** 0.06
21855 H 131.42640994996515 85.47596596621597 0.22404084960453474 H 0.0 **** 0.06
21856 C 64.29832294609488 29.617163808525873 28.10033897700083 C 0.0 **** -0.24
21857 H 65.34546597180915 29.500859870797065 27.820521564638284 H 0.0 **** 0.06
21858 H 63.97135055084894 28.736780106706327 28.655102492983644 H 0.0 **** 0.06
21859 H 63.691260888286564 29.726263738405457 27.201116090188634 H 0.0 **** 0.06
21860 H 64.18523565314598 30.503395254471336 28.72421553119443 H 0.0 **** 0.06
21861 C 72.02318531597732 83.58348345114649 78.00112431784294 C 0.0 **** -0.24
21862 H 72.25134792208591 84.45133812700249 77.38357762543835 H 0.0 **** 0.06
21863 H 71.70827894632954 82.75725928196553 77.36293270033397 H 0.0 **** 0.06
21864 H 71.22012176873827 83.83326409010976 78.6947989423411 H 0.0 **** 0.06
21865 H 72.91096467574901 83.29242196783392 78.56231314933794 H 0.0 **** 0.06
21866 C 101.74948170404433 28.479201515086288 9.820149036885049 C 0.0 **** -0.24
21867 H 102.1102587784019 29.50004069787704 9.692038977298495 H 0.0 **** 0.06
21868 H 102.01498069606106 27.887825216475818 8.944481173261622 H 0.0 **** 0.06
21869 H 100.66568808280391 28.489555788924974 9.93653666064673 H 0.0 **** 0.06
21870 H 102.20556312950376 28.04076496890022 10.707361521758628 H 0.0 **** 0.06
21871 C 39.38066209368267 29.305259776306684 129.1183750003961 C 0.0 **** -0.24
21872 H 38.303531869469936 29.202869431433726 128.99095623203937 H 0.0 **** 0.06
21873 H 39.63048652713516 29.222015437189555 130.17659618506718 H 0.0 **** 0.06
21874 H 39.69908859823292 30.278696843172554 128.74560331810613 H 0.0 **** 0.06
21875 H 39.889412890483214 28.518195134280802 128.56154398145208 H 0.0 **** 0.06
21876 C 126.83995759069865 106.92681877542799 142.7017063838765 C 0.0 **** -0.24
21877 H 125.84509181216374 106.6115150574002 142.38547926402612 H 0.0 **** 0.06
21878 H 126.81597833186026 107.9825488871723 142.97524962391836 H 0.0 **** 0.06
21879 H 127.54486462599843 106.77941604809291 141.88295951103274 H 0.0 **** 0.06
21880 H 127.15263058179262 106.3352203975686 143.56196729967695 H 0.0 **** 0.06
21881 C 44.43692018975105 20.360741560351556 135.13606290401023 C 0.0 **** -0.24
21882 H 45.33138807921523 19.738153619763494 135.13423822718514 H 0.0 **** 0.06
21883 H 43.766740761802566 20.031459620164384 135.93087727656805 H 0.0 **** 0.06
21884 H 43.93042092335929 20.271862919224674 134.1741039385998 H 0.0 **** 0.06
21885 H 44.718036612892774 21.39981470206584 135.30403435193304 H 0.0 **** 0.06
21886 C 114.92556727704935 53.95812876504294 29.984115110143307 C 0.0 **** -0.24
21887 H 114.14494238218573 53.58254344159201 30.64447051834719 H 0.0 **** 0.06
21888 H 115.85295792421034 54.071999135202134 30.54598524609007 H 0.0 **** 0.06
21889 H 114.6254349819197 54.92430242473327 29.578638901345357 H 0.0 **** 0.06
21890 H 115.07949665005957 53.253751189201864 29.166543166921713 H 0.0 **** 0.06
21891 C 62.82669675232586 35.75674078923813 65.44133362257756 C 0.0 **** -0.24
21892 H 63.28134977037074 35.51859589018994 64.48079291678292 H 0.0 **** 0.06
21893 H 62.42828158570072 36.77132079554591 65.41339267518694 H 0.0 **** 0.06
21894 H 63.57786169629341 35.68301635634054 66.22829541979024 H 0.0 **** 0.06
21895 H 62.018359079735475 35.05417410937586 65.64430447863467 H 0.0 **** 0.06
21896 C 6.511378463518213 78.05308531118106 70.3092122726814 C 0.0 **** -0.24
21897 H 7.55743923123282 78.3604306248983 70.29818247600619 H 0.0 **** 0.06
21898 H 6.3778171373851364 77.19823036266234 69.64622035063104 H 0.0 **** 0.06
21899 H 5.887351217193157 78.87910034715134 69.96856137014635 H 0.0 **** 0.06
21900 H 6.225460974720477 77.77644374053534 71.32389178689334 H 0.0 **** 0.06
21901 C 79.20146217514969 68.60672645437455 35.69321788167479 C 0.0 **** -0.24
21902 H 79.22753455503758 67.70507493910173 35.08028499254046 H 0.0 **** 0.06
21903 H 78.23078617039423 69.08986286399113 35.58462151723713 H 0.0 **** 0.06
21904 H 79.98627134517355 69.28887403435283 35.367168623953894 H 0.0 **** 0.06
21905 H 79.361752524487 68.34036602502678 36.7374328858711 H 0.0 **** 0.06
21906 C 74.53154715265794 121.31414730340279 64.55059215761034 C 0.0 **** -0.24
21907 H 74.27255823265696 120.38199339240177 64.04845002307002 H 0.0 **** 0.06
21908 H 73.63192195303853 121.75868849053214 64.97675122334039 H 0.0 **** 0.06
21909 H 74.97204188619156 122.00443493841337 63.83074960991752 H 0.0 **** 0.06
21910 H 75.24926459162195 121.1116101527368 65.34506886791712 H 0.0 **** 0.06
21911 C 76.65282122358437 100.9786065401217 83.95053378433269 C 0.0 **** -0.24
21912 H 76.52514674656518 101.8194297519076 83.26926333818818 H 0.0 **** 0.06
21913 H 76.3038948882947 100.06476647905367 83.46845111280788 H 0.0 **** 0.06
21914 H 76.07529805562066 101.15502197510658 84.85795677272182 H 0.0 **** 0.06
21915 H 77.70768825837345 100.87577516995381 84.20540267665243 H 0.0 **** 0.06
21916 C 66.84075742012982 95.06164940838843 9.583393444675949 C 0.0 **** -0.24
21917 H 67.12373965937377 95.63994704917023 10.462748761354703 H 0.0 **** 0.06
21918 H 65.8963403790284 95.43849341368609 9.189958606602573 H 0.0 **** 0.06
21919 H 66.72714712401466 94.01354442791461 9.860307776928096 H 0.0 **** 0.06
21920 H 67.61452783088407 95.1543326746616 8.822074189515234 H 0.0 **** 0.06
21921 C 107.5079937507919 94.14630192569399 144.87303032957345 C 0.0 **** -0.24
21922 H 108.29381570819449 94.16356584396402 144.11801132678482 H 0.0 **** 0.06
21923 H 107.95777408486349 94.05727298907705 145.86199817736656 H 0.0 **** 0.06
21924 H 106.85059161955549 93.29568377104827 144.69427890763055 H 0.0 **** 0.06
21925 H 106.93114562419173 95.06975284805182 144.8176538886866 H 0.0 **** 0.06
21926 C 73.08842413738029 26.286203557033843 64.09797714669949 C 0.0 **** -0.24
21927 H 71.9987590695329 26.310013521091832 64.06320549829968 H 0.0 **** 0.06
21928 H 73.49050969711392 27.005901859178095 63.3848015303451 H 0.0 **** 0.06
21929 H 73.43700631588429 25.285905945291915 63.84194584053199 H 0.0 **** 0.06
21930 H 73.42469455736953 26.542421669388318 65.10306839444209 H 0.0 **** 0.06
21931 C 95.4295980803744 10.676285148811957 11.090787091518166 C 0.0 **** -0.24
21932 H 95.39100763679889 9.672215964504232 10.666622252239108 H 0.0 **** 0.06
21933 H 96.20292690541154 10.716051154623273 11.858395143738392 H 0.0 **** 0.06
21934 H 94.46396030092987 10.920289253993047 11.533979584230678 H 0.0 **** 0.06
21935 H 95.66020190394661 11.394371524064127 10.304281083431476 H 0.0 **** 0.06
21936 C 98.3467154193942 70.15632261247275 57.55256426325056 C 0.0 **** -0.24
21937 H 98.92925586374825 69.35936820843602 58.01466403782476 H 0.0 **** 0.06
21938 H 98.58239275987825 70.20790424582673 56.48906744992229 H 0.0 **** 0.06
21939 H 98.59158784491879 71.10682681111774 58.02520482810078 H 0.0 **** 0.06
21940 H 97.28408759109857 69.94981429359096 57.67962056286058 H 0.0 **** 0.06
21941 C 12.661571913280909 50.72734337821802 87.30238970783671 C 0.0 **** -0.24
21942 H 13.640248790429439 50.99786033827567 87.6994162351611 H 0.0 **** 0.06
21943 H 12.487979797561195 51.26184895138594 86.36780342634079 H 0.0 **** 0.06
21944 H 11.890613295230594 50.99693060856707 88.02428404536774 H 0.0 **** 0.06
21945 H 12.627207766775484 49.653363486965375 87.1187944884281 H 0.0 **** 0.06
21946 C 60.58286340547613 27.319693736792914 78.82551104725843 C 0.0 **** -0.24
21947 H 61.140398361605946 27.86577244261133 78.06542838195455 H 0.0 **** 0.06
21948 H 60.81357148436571 26.256286566067303 78.75282045443322 H 0.0 **** 0.06
21949 H 59.514666170197145 27.47092724532817 78.67171909181238 H 0.0 **** 0.06
21950 H 60.86308807540169 27.68475936161684 79.81404286733567 H 0.0 **** 0.06
21951 C 26.51523689244585 30.062978798193285 10.081419911488837 C 0.0 **** -0.24
21952 H 26.87401613197855 29.682457386607325 11.037921779067005 H 0.0 **** 0.06
21953 H 25.740707080911996 30.80911418371204 10.254897267579196 H 0.0 **** 0.06
21954 H 26.105267798560334 29.24098178641708 9.494579087603796 H 0.0 **** 0.06
21955 H 27.343688555122675 30.517865407194734 9.537736230970864 H 0.0 **** 0.06
21956 C 67.40875120512068 25.018408976966427 52.826609013274265 C 0.0 **** -0.24
21957 H 67.06369681586679 25.686846843633255 53.616168532594656 H 0.0 **** 0.06
21958 H 68.3010447326783 24.489973576391293 53.163496561949046 H 0.0 **** 0.06
21959 H 67.64545519846334 25.60062198987277 51.935822764518946 H 0.0 **** 0.06
21960 H 66.62499522608498 24.29819693610891 52.59293604688975 H 0.0 **** 0.06
21961 C 9.701214357159984 108.44102604216404 57.02910384887444 C 0.0 **** -0.24
21962 H 8.648555178829554 108.47036690175621 57.31202557609541 H 0.0 **** 0.06
21963 H 9.784871703117062 108.45733030484767 55.94242886665529 H 0.0 **** 0.06
21964 H 10.155772474188097 107.52940261679801 57.416402863307624 H 0.0 **** 0.06
21965 H 10.213603720895321 109.30833291652301 57.44543643444203 H 0.0 **** 0.06
21966 C 96.14096588595457 51.831569697192776 98.70659406612057 C 0.0 **** -0.24
21967 H 96.3783404689043 51.79103786608741 99.76959188736711 H 0.0 **** 0.06
21968 H 96.69286435868368 52.65014042894792 98.2435519826377 H 0.0 **** 0.06
21969 H 95.07066942400454 51.996334503234834 98.57898146323453 H 0.0 **** 0.06
21970 H 96.42286004964485 50.89031800027 98.23560491263254 H 0.0 **** 0.06
21971 C 31.64860968484853 117.03747201269034 23.972797464187295 C 0.0 **** -0.24
21972 H 32.2104203922935 117.35179361567823 23.09344114414 H 0.0 **** 0.06
21973 H 30.583832149425177 117.19709153991077 23.80007993501897 H 0.0 **** 0.06
21974 H 31.969136368311737 117.62188795856933 24.83542516897836 H 0.0 **** 0.06
21975 H 31.832785593534005 115.98010330525914 24.162345710878355 H 0.0 **** 0.06
21976 C 30.611501562727568 79.62365299088691 90.9194702279825 C 0.0 **** -0.24
21977 H 30.92712685178779 80.1925788739471 91.79336659733241 H 0.0 **** 0.06
21978 H 31.34196376037653 78.8408456510697 90.7134615545842 H 0.0 **** 0.06
21979 H 30.538213169765186 80.28905910994703 90.06001205685222 H 0.0 **** 0.06
21980 H 29.638726777620207 79.17170995300587 91.11239142827365 H 0.0 **** 0.06
21981 C 121.90911312705997 10.586968153149883 131.49418846144155 C 0.0 **** -0.24
21982 H 122.09341636284707 9.692842756700486 130.89799300443062 H 0.0 **** 0.06
21983 H 122.64147578631902 10.643862380475241 132.29948398373827 H 0.0 **** 0.06
21984 H 120.90532907682196 10.539154771704546 131.91758945654877 H 0.0 **** 0.06
21985 H 121.99406810947058 11.469501105709355 130.86157321059758 H 0.0 **** 0.06
21986 C 102.81839863109118 8.131449504363559 111.98224108354663 C 0.0 **** -0.24
21987 H 103.73011469994638 7.851006243031179 111.45490127161037 H 0.0 **** 0.06
21988 H 103.05388241487043 8.349388180567303 113.02375584578778 H 0.0 **** 0.06
21989 H 102.10501813665037 7.308862151109338 111.93453153220298 H 0.0 **** 0.06
21990 H 102.38578604947789 9.015428920992917 111.51395737555606 H 0.0 **** 0.06
21991 C 101.16547141616397 110.55657262538814 65.6718868988194 C 0.0 **** -0.24
21992 H 101.45943306373988 109.65885126258881 66.21443988135573 H 0.0 **** 0.06
21993 H 100.12949448744897 110.45937595241558 65.3446888265469 H 0.0 **** 0.06
21994 H 101.81060224717451 110.68324215230116 64.80266660205922 H 0.0 **** 0.06
21995 H 101.26093761057612 111.42370587675073 66.32488919426217 H 0.0 **** 0.06
21996 C 13.299656122269198 68.38008910865477 0.11212635598703002 C 0.0 **** -0.24
21997 H 13.612562928786758 67.33526259348798 0.13527517264465772 H 0.0 **** 0.06
21998 H 12.211692649747874 68.43168945106794 0.069070729449205 H 0.0 **** 0.06
21999 H 13.722637648188027 68.86610434514046 -0.7664706331898614 H 0.0 **** 0.06
22000 H 13.652633520420721 68.884696409561 1.0118164966571221 H 0.0 **** 0.06
22001 C 93.0872715797995 14.886513496483637 73.7412997506895 C 0.0 **** -0.24
22002 H 93.49794505883489 15.519534283743539 72.95417783570889 H 0.0 **** 0.06
22003 H 91.99987370521058 14.950710453944112 73.72828248346468 H 0.0 **** 0.06
22004 H 93.46011890205597 15.224041525620436 74.70895291802913 H 0.0 **** 0.06
22005 H 93.39379961587707 13.853994396306426 73.5736639261354 H 0.0 **** 0.06
22006 C 101.97504185053859 78.58888332402935 16.504695206044786 C 0.0 **** -0.24
22007 H 101.04503597517018 78.7583802896084 17.046753984359505 H 0.0 **** 0.06
22008 H 101.82493775230844 77.80420215601936 15.762823826567065 H 0.0 **** 0.06
22009 H 102.75285651345449 78.28460142694777 17.204519284115463 H 0.0 **** 0.06
22010 H 102.27652807088536 79.50950503096439 16.00458357087379 H 0.0 **** 0.06
22011 C 71.15806440521067 57.288325265229616 93.12208176259514 C 0.0 **** -0.24
22012 H 70.98899500257596 56.742293150631156 92.19345998502223 H 0.0 **** 0.06
22013 H 71.87459429598204 58.09142824328097 92.94598100898236 H 0.0 **** 0.06
22014 H 71.55301355160098 56.60739708962382 93.87685851219646 H 0.0 **** 0.06
22015 H 70.21618049110003 57.71089073596568 93.4722617474253 H 0.0 **** 0.06
22016 C 24.333382118961765 0.1969768369076803 121.30864028788383 C 0.0 **** -0.24
22017 H 24.56231508916244 -0.07004295972606656 120.27733917551106 H 0.0 **** 0.06
22018 H 24.733300213281268 -0.5648033675853128 121.97853981311212 H 0.0 **** 0.06
22019 H 23.252966997359522 0.2617553411788549 121.43693604109293 H 0.0 **** 0.06
22020 H 24.78533776885382 1.1605733281141681 121.54303690167424 H 0.0 **** 0.06
22021 C 73.69528648528673 72.33623599877026 68.28140599355027 C 0.0 **** -0.24
22022 H 73.06825768988305 71.44547832645046 68.31807408723989 H 0.0 **** 0.06
22023 H 74.59742457824896 72.12241687592405 67.70783458547052 H 0.0 **** 0.06
22024 H 73.96928867243786 72.62892008010996 69.29524609370982 H 0.0 **** 0.06
22025 H 73.14493564245718 73.14826517701928 67.80513663289007 H 0.0 **** 0.06
22026 C 47.27009021441725 117.16793488183593 24.748126184920636 C 0.0 **** -0.24
22027 H 47.30358513088446 118.09370037863859 24.17321901220498 H 0.0 **** 0.06
22028 H 47.55481746194907 116.33276706408337 24.108747599442268 H 0.0 **** 0.06
22029 H 46.2587392233562 117.01057124309891 25.12360824229569 H 0.0 **** 0.06
22030 H 47.96258851808156 117.23631195791735 25.58684696858205 H 0.0 **** 0.06
22031 C 95.85766747127671 72.44269848095716 128.4162029228933 C 0.0 **** -0.24
22032 H 95.7473711029239 73.33122939294016 129.03752844814963 H 0.0 **** 0.06
22033 H 95.48877185700672 72.6541291932794 127.41243951155829 H 0.0 **** 0.06
22034 H 95.28502382194544 71.62235625598247 128.8495097478772 H 0.0 **** 0.06
22035 H 96.91046955016365 72.16331923143423 128.36524259428327 H 0.0 **** 0.06
22036 C 9.47310470759004 25.753706297759948 101.9479457210335 C 0.0 **** -0.24
22037 H 10.21441738887546 26.33737417281077 101.40272449126614 H 0.0 **** 0.06
22038 H 9.86994783521493 25.48737749327273 102.92742434913484 H 0.0 **** 0.06
22039 H 9.243134561926183 24.84637508157749 101.38950710510889 H 0.0 **** 0.06
22040 H 8.565959830719237 26.344654746578556 102.07207861395187 H 0.0 **** 0.06
22041 C 44.502644137434544 68.73693355500501 64.4881186189636 C 0.0 **** -0.24
22042 H 44.921119494178555 67.80399859181108 64.8648991894579 H 0.0 **** 0.06
22043 H 45.16126527037801 69.14683931153462 63.722047868200264 H 0.0 **** 0.06
22044 H 44.409784321997876 69.45023059976106 65.30744169529345 H 0.0 **** 0.06
22045 H 43.51956189025702 68.54590853388665 64.05839241388884 H 0.0 **** 0.06
22046 C 123.44566204601915 30.7788680765438 17.684225355154098 C 0.0 **** -0.24
22047 H 124.06828195646102 30.562983065481262 18.55228295216058 H 0.0 **** 0.06
22048 H 122.39431037866306 30.722092073340093 17.9688252798625 H 0.0 **** 0.06
22049 H 123.6500030959526 30.049608967324275 16.89968037475066 H 0.0 **** 0.06
22050 H 123.66862905946955 31.780269515828536 17.31695197680503 H 0.0 **** 0.06
22051 C 15.001248850473708 9.079162607122385 38.65011754147929 C 0.0 **** -0.24
22052 H 15.522391164507859 8.589500334085585 39.47241518734279 H 0.0 **** 0.06
22053 H 15.21966733693776 8.556521748869159 37.71847929334558 H 0.0 **** 0.06
22054 H 15.33491031118821 10.114421880598286 38.57378145297662 H 0.0 **** 0.06
22055 H 13.927124554244052 9.057023624524675 38.8365144200053 H 0.0 **** 0.06
22056 C 61.282231755150235 117.36935113846182 31.218007384976275 C 0.0 **** -0.24
22057 H 60.757027859917144 116.45566058676197 30.93801027290717 H 0.0 **** 0.06
22058 H 62.14280747516332 117.1178854215898 31.838633165201102 H 0.0 **** 0.06
22059 H 60.608234985129485 118.01856792052503 31.77649803059814 H 0.0 **** 0.06
22060 H 61.62085181008695 117.88392984989785 30.31927323954004 H 0.0 **** 0.06
22061 C 119.70536954367219 34.84875352878578 66.60541667636022 C 0.0 **** -0.24
22062 H 120.45512714799446 35.30696936820226 67.24996818814273 H 0.0 **** 0.06
22063 H 118.9539384364644 34.35106148727188 67.21823541808389 H 0.0 **** 0.06
22064 H 120.18524111951047 34.11737979569364 65.95429635331863 H 0.0 **** 0.06
22065 H 119.22861518167258 35.61791069477283 65.9989421361863 H 0.0 **** 0.06
22066 C 85.66647526142552 96.15054290532726 38.32997974118469 C 0.0 **** -0.24
22067 H 85.34359412814183 96.95474117933492 37.668911815996466 H 0.0 **** 0.06
22068 H 85.50329825130461 95.1904346188955 37.8403653618015 H 0.0 **** 0.06
22069 H 85.0937076030685 96.18887730752431 39.25578723532827 H 0.0 **** 0.06
22070 H 86.72699257147873 96.26954124811635 38.55451565610511 H 0.0 **** 0.06
22071 C 76.5969030488923 102.33720016834374 129.72586812596091 C 0.0 **** -0.24
22072 H 76.7607098705148 102.69891136041582 130.74080567105707 H 0.0 **** 0.06
22073 H 76.99234727562069 101.32631047202776 129.63159861483388 H 0.0 **** 0.06
22074 H 77.10512878251299 102.99439512143 129.02001594038657 H 0.0 **** 0.06
22075 H 75.52829457008846 102.33110973251529 129.51095250503028 H 0.0 **** 0.06
22076 C 58.88836695782405 103.30318997855403 10.17949659006095 C 0.0 **** -0.24
22077 H 59.09739060007033 103.35815119938283 9.11064237930529 H 0.0 **** 0.06
22078 H 58.16353994206955 104.07240111215046 10.446736074359137 H 0.0 **** 0.06
22079 H 59.811044133731656 103.46138699108559 10.738037045638947 H 0.0 **** 0.06
22080 H 58.48214788644654 102.32093928287318 10.419645516934082 H 0.0 **** 0.06
22081 C 71.792280373487 74.51223100724661 99.61338186124789 C 0.0 **** -0.24
22082 H 71.09117108861437 74.60202492847776 100.44289901111179 H 0.0 **** 0.06
22083 H 72.43556337287843 75.39265664447362 99.58540601128466 H 0.0 **** 0.06
22084 H 71.23909302610392 74.43671554749778 98.6773081120542 H 0.0 **** 0.06
22085 H 72.4023503148947 73.6192699116844 99.74818181977793 H 0.0 **** 0.06
22086 C 19.753595470752877 1.5745621810492878 85.98122607727112 C 0.0 **** -0.24
22087 H 20.422325599771803 1.3662106761106259 86.81579693609399 H 0.0 **** 0.06
22088 H 20.32217427722918 1.5719437902465074 85.05033013363538 H 0.0 **** 0.06
22089 H 19.289721654997756 2.550708109559139 86.12215548135009 H 0.0 **** 0.06
22090 H 18.9795569091088 0.8080043435594746 85.93576934693817 H 0.0 **** 0.06
22091 C 88.97856115364577 89.73050806678839 53.09274185871203 C 0.0 **** -0.24
22092 H 88.37797590951844 89.05063537789282 52.488464284316706 H 0.0 **** 0.06
22093 H 88.52576269006327 90.7223686661219 53.080992969371835 H 0.0 **** 0.06
22094 H 89.98751048084789 89.7857944171605 52.683766823435576 H 0.0 **** 0.06
22095 H 89.0220213290052 89.36232896469147 54.11822530579053 H 0.0 **** 0.06
22096 C 119.19143938129159 41.82907289976279 33.060403696537094 C 0.0 **** -0.24
22097 H 119.56192566083305 42.34825350746755 33.943681829992755 H 0.0 **** 0.06
22098 H 119.9452970303125 41.12437599267193 32.70915048553195 H 0.0 **** 0.06
22099 H 118.97932716212543 42.55501586414633 32.27521828354487 H 0.0 **** 0.06
22100 H 118.27853228007919 41.28969252362876 33.312893953632255 H 0.0 **** 0.06
22101 C 83.70817970634346 107.93387822517809 18.07590050190322 C 0.0 **** -0.24
22102 H 84.35714766424631 108.37191967165177 17.317324735370562 H 0.0 **** 0.06
22103 H 84.31622883165055 107.54662773198231 18.89400456101339 H 0.0 **** 0.06
22104 H 83.13154721493606 107.12095768278311 17.635173789046917 H 0.0 **** 0.06
22105 H 83.02908199274937 108.69657327575794 18.45694308516846 H 0.0 **** 0.06
22106 C 142.49166369317297 28.726365723058436 30.85979716317466 C 0.0 **** -0.24
22107 H 143.01017444189827 29.469625882391846 31.465345534480434 H 0.0 **** 0.06
22108 H 142.63992500837176 28.95132972376169 29.803042352229852 H 0.0 **** 0.06
22109 H 141.42669187806493 28.748640686309983 31.09098919555052 H 0.0 **** 0.06
22110 H 142.89105570952606 27.736147535008982 31.08051844137566 H 0.0 **** 0.06
22111 C 107.52399297515207 37.861347099023675 26.16679810348134 C 0.0 **** -0.24
22112 H 107.92827080613371 38.75854767250624 25.69787543258076 H 0.0 **** 0.06
22113 H 107.34480553073276 37.10372931450743 25.4037908582863 H 0.0 **** 0.06
22114 H 106.58605433729109 38.10400216821452 26.66661560982473 H 0.0 **** 0.06
22115 H 108.23684612215523 37.48064766154641 26.897004339071657 H 0.0 **** 0.06
22116 C 35.75712786123391 141.21003579648215 26.17795364824245 C 0.0 **** -0.24
22117 H 35.524229596296614 141.55165133646835 25.16976761085563 H 0.0 **** 0.06
22118 H 35.02739311681174 140.459299674842 26.484192857671374 H 0.0 **** 0.06
22119 H 35.72151423847826 142.05490634349292 26.865086304143816 H 0.0 **** 0.06
22120 H 36.75605151951336 140.772708269845 26.191741608475184 H 0.0 **** 0.06
22121 C 62.380894186103305 88.90489715502186 59.00984645965687 C 0.0 **** -0.24
22122 H 62.921577048734974 88.77879046882498 58.07125118468173 H 0.0 **** 0.06
22123 H 62.7650513502378 89.77966803167854 59.53451881658685 H 0.0 **** 0.06
22124 H 62.519381123598976 88.01971663469618 59.630041331280395 H 0.0 **** 0.06
22125 H 61.31964406104707 89.04212902756437 58.80249053205459 H 0.0 **** 0.06
22126 C 131.5019180883936 109.20164523308276 136.56573816422576 C 0.0 **** -0.24
22127 H 130.96912193012014 110.12979833164846 136.35947142837244 H 0.0 **** 0.06
22128 H 131.7090873911073 108.68634388382023 135.62707349623156 H 0.0 **** 0.06
22129 H 130.88877247931651 108.56470584788619 137.20229572104995 H 0.0 **** 0.06
22130 H 132.44024091462165 109.42598115752051 137.07171692457246 H 0.0 **** 0.06
22131 C 130.53972725393544 34.269878752215305 70.02291706586038 C 0.0 **** -0.24
22132 H 130.7786186785438 33.42576335389191 69.37638017095465 H 0.0 **** 0.06
22133 H 130.04388457217613 35.04557126466989 69.43865762595706 H 0.0 **** 0.06
22134 H 131.45949871607934 34.67013263684203 70.45082503900146 H 0.0 **** 0.06
22135 H 129.87999399998534 33.939044292927264 70.8239404197828 H 0.0 **** 0.06
22136 C 73.68199832474826 98.18636629216357 38.485152956774925 C 0.0 **** -0.24
22137 H 74.16228444326416 98.88022276067323 37.794936063517184 H 0.0 **** 0.06
22138 H 74.0746475198587 97.1822741611638 38.32141369527943 H 0.0 **** 0.06
22139 H 72.60614577801061 98.18909866669128 38.3136983736062 H 0.0 **** 0.06
22140 H 73.88788291861104 98.49409949495137 39.51018646468464 H 0.0 **** 0.06
22141 C 59.47832596867616 11.384626282900278 69.20857036138412 C 0.0 **** -0.24
22142 H 60.47231018611866 11.653734166198063 68.85094174307235 H 0.0 **** 0.06
22143 H 58.72547695260165 11.875652325788678 68.59206271760488 H 0.0 **** 0.06
22144 H 59.36528033573725 11.704401486699375 70.24494936765993 H 0.0 **** 0.06
22145 H 59.35026733002927 10.303807133326153 69.14674107986818 H 0.0 **** 0.06
22146 C 143.0811147201856 83.11039308969389 68.32985511029045 C 0.0 **** -0.24
22147 H 142.33413364425135 83.90463493858543 68.32881364639279 H 0.0 **** 0.06
22148 H 142.58487689134896 82.14543921739408 68.22692342046359 H 0.0 **** 0.06
22149 H 143.63739633682277 83.13617451919725 69.26617979820612 H 0.0 **** 0.06
22150 H 143.7681587706039 83.25792274025306 67.49600895258085 H 0.0 **** 0.06
22151 C 81.38523246406709 93.22128697073998 22.525299550920465 C 0.0 **** -0.24
22152 H 81.36615707356701 93.70086578656597 21.54686960091078 H 0.0 **** 0.06
22153 H 80.38475022058823 92.86709840055804 22.774778323067494 H 0.0 **** 0.06
22154 H 81.713541745041 93.94133046789116 23.27528908567882 H 0.0 **** 0.06
22155 H 82.074753260568 92.37849961335303 22.504148812465473 H 0.0 **** 0.06
22156 C 1.9322104741976034 135.29692945574064 111.89070376283344 C 0.0 **** -0.24
22157 H 2.9212880732872577 135.0671349263784 112.28959092094864 H 0.0 **** 0.06
22158 H 2.025193063287105 136.0354763592062 111.09417716216795 H 0.0 **** 0.06
22159 H 1.3049720187466392 135.69810208565613 112.68671967558335 H 0.0 **** 0.06
22160 H 1.4809615747935823 134.38822063841886 111.49492665203157 H 0.0 **** 0.06
22161 C 5.528163285754893 76.24379394529723 36.84092563574205 C 0.0 **** -0.24
22162 H 6.0255173778159445 75.49804065396216 36.219955526848366 H 0.0 **** 0.06
22163 H 4.975134937738893 75.7438347640429 37.63573777367981 H 0.0 **** 0.06
22164 H 4.838844684981076 76.8246950420276 36.227730152019944 H 0.0 **** 0.06
22165 H 6.273656085873522 76.90795114990675 37.277972062315484 H 0.0 **** 0.06
22166 C 46.72428591449027 41.70232703031621 14.71265167358547 C 0.0 **** -0.24
22167 H 45.73466484234237 42.00949685903507 15.050685282154916 H 0.0 **** 0.06
22168 H 47.48036257911957 42.32329882032339 15.192442233566055 H 0.0 **** 0.06
22169 H 46.79035778902616 41.81887300197674 13.630370059663846 H 0.0 **** 0.06
22170 H 46.889561842481186 40.657461379350735 14.97673038508077 H 0.0 **** 0.06
22171 C 126.84022939409306 22.297925320859882 63.225921994773614 C 0.0 **** -0.24
22172 H 126.12290430620054 22.251194264762674 64.04505739657273 H 0.0 **** 0.06
22173 H 126.91759918342818 23.32568702431052 62.86949423733833 H 0.0 **** 0.06
22174 H 126.50496792465754 21.654448887616873 62.41281701905692 H 0.0 **** 0.06
22175 H 127.81596737908802 21.96168647828363 63.57805090025852 H 0.0 **** 0.06
22176 C 92.3478097764974 95.87999336580087 64.74808973428085 C 0.0 **** -0.24
22177 H 92.80159587030388 95.64514760622414 65.71055870361586 H 0.0 **** 0.06
22178 H 92.81866769666811 96.77159345106419 64.33339945676778 H 0.0 **** 0.06
22179 H 91.28218000459631 96.0598716385363 64.8832185943125 H 0.0 **** 0.06
22180 H 92.49125055496907 95.042049149809 64.06568505708024 H 0.0 **** 0.06
22181 C 13.087461563609622 10.031991209081411 144.9034919430634 C 0.0 **** -0.24
22182 H 13.223861066046197 8.958323597247414 144.77020287196638 H 0.0 **** 0.06
22183 H 13.267364431226014 10.293735357097887 145.9468087270032 H 0.0 **** 0.06
22184 H 12.068293618930483 10.30486624477038 144.63079286567137 H 0.0 **** 0.06
22185 H 13.790454629099656 10.569117263370146 144.2672984037801 H 0.0 **** 0.06
22186 C 48.84815020598364 3.120596982610966 109.27102117549414 C 0.0 **** -0.24
22187 H 48.81493625039528 3.22397912833188 110.35582939967868 H 0.0 **** 0.06
22188 H 48.13906184720048 2.3544771413721826 108.95715019619153 H 0.0 **** 0.06
22189 H 49.853773660209725 2.832910606022839 108.96416792430547 H 0.0 **** 0.06
22190 H 48.58529897139243 4.0721461394469465 108.80765374356217 H 0.0 **** 0.06
22191 C 81.22276189525128 125.65283229665707 126.3068056798804 C 0.0 **** -0.24
22192 H 82.14028536603318 125.56625182327389 125.72432355852015 H 0.0 **** 0.06
22193 H 81.22996088420355 124.91075452781743 127.10633225087628 H 0.0 **** 0.06
22194 H 80.3634226976787 125.48285873661371 125.65941556760464 H 0.0 **** 0.06
22195 H 81.15990041259968 126.65207608358708 126.73895869962237 H 0.0 **** 0.06
22196 C 18.529130245017598 82.26259992466589 8.80824435217363 C 0.0 **** -0.24
22197 H 19.006567036811077 81.96404054725907 9.741383298212554 H 0.0 **** 0.06
22198 H 17.764678319572795 81.53272931362989 8.542447388904861 H 0.0 **** 0.06
22199 H 19.277122811178003 82.31081974064834 8.01774906090293 H 0.0 **** 0.06
22200 H 18.068426515868907 83.2426621150919 8.933827362277498 H 0.0 **** 0.06
22201 C 104.62453943120005 123.84221195882034 0.6680065721717483 C 0.0 **** -0.24
22202 H 105.07660553378494 122.88627038692229 0.40537983075023476 H 0.0 **** 0.06
22203 H 105.29881453388772 124.65144979339561 0.38888459222891925 H 0.0 **** 0.06
22204 H 104.44355987452009 123.87452413497536 1.7432587756660496 H 0.0 **** 0.06
22205 H 103.67950741656416 123.95512949840034 0.13689452293255044 H 0.0 **** 0.06
22206 C 121.17104615684215 144.19931798139748 143.0379480059458 C 0.0 **** -0.24
22207 H 120.68110345749571 143.38789740431574 143.57769773314922 H 0.0 **** 0.06
22208 H 121.43348030142832 144.99390271506218 143.73734587098605 H 0.0 **** 0.06
22209 H 120.49381202640538 144.5914132729214 142.27985034242266 H 0.0 **** 0.06
22210 H 122.07462337471813 143.82277099919804 142.559344367278 H 0.0 **** 0.06
22211 C 29.807738111476738 141.933960722949 85.04382288683757 C 0.0 **** -0.24
22212 H 29.858118145919605 141.4211046858974 86.0044718586642 H 0.0 **** 0.06
22213 H 30.468555058765133 142.80130901710532 85.06024984640896 H 0.0 **** 0.06
22214 H 28.783954225036524 142.25918272690146 84.85886046109181 H 0.0 **** 0.06
22215 H 30.121247854086135 141.25321826835133 84.25201149973236 H 0.0 **** 0.06
22216 C 29.32301736428957 88.62892577914474 19.690424021798435 C 0.0 **** -0.24
22217 H 28.803099237664014 88.08100856674935 18.90562424241061 H 0.0 **** 0.06
22218 H 30.3519401448967 88.27540833328604 19.75946196387838 H 0.0 **** 0.06
22219 H 28.81874446495837 88.46689493471618 20.64301403813417 H 0.0 **** 0.06
22220 H 29.319732255872452 89.6933133029049 19.453835055762028 H 0.0 **** 0.06
22221 C 1.5167361710888443 75.30371231921447 126.7869381742779 C 0.0 **** -0.24
22222 H 1.5050074071361692 75.48828982478747 125.71324807488219 H 0.0 **** 0.06
22223 H 0.6472800817140474 75.7754090774107 127.24668402615407 H 0.0 **** 0.06
22224 H 2.426881382615715 75.7203125220455 127.21839832341166 H 0.0 **** 0.06
22225 H 1.4866328379706708 74.22919534774383 126.97142130631606 H 0.0 **** 0.06
22226 C 138.91022312351777 53.231436056738985 100.27126712712067 C 0.0 **** -0.24
22227 H 138.4382104504122 53.74980901773249 101.10540822491039 H 0.0 **** 0.06
22228 H 139.85177354981002 52.792295005418154 100.60329407453233 H 0.0 **** 0.06
22229 H 139.1039618034312 53.93907618842243 99.46531386958515 H 0.0 **** 0.06
22230 H 138.24866672018206 52.44322280300966 99.9115451532027 H 0.0 **** 0.06
22231 C 79.19746483332236 109.53089689361663 118.09208019790522 C 0.0 **** -0.24
22232 H 78.39064893397658 110.21720751398301 118.35098514731224 H 0.0 **** 0.06
22233 H 79.54573487537404 109.74430574528033 117.08117537292817 H 0.0 **** 0.06
22234 H 78.83123464557063 108.50537351701853 118.14190146747218 H 0.0 **** 0.06
22235 H 80.02082048032501 109.65669135558146 118.79566683621071 H 0.0 **** 0.06
22236 C 107.35935972475528 128.34774990923572 136.31858714873607 C 0.0 **** -0.24
22237 H 106.95550696356827 128.55316279476068 137.3099934193769 H 0.0 **** 0.06
22238 H 108.12501204953918 129.08714366768157 136.0788323058181 H 0.0 **** 0.06
22239 H 106.55870863880284 128.40112738454658 135.5817258825069 H 0.0 **** 0.06
22240 H 107.8002530019188 127.3513054309253 136.30640572221228 H 0.0 **** 0.06
22241 C 84.78045503628235 95.49994700597958 15.164997546535659 C 0.0 **** -0.24
22242 H 85.79501312916207 95.51721329961529 14.765815024715067 H 0.0 **** 0.06
22243 H 84.43857603068741 96.52216015589428 15.329365880939832 H 0.0 **** 0.06
22244 H 84.77137455512039 94.95644247185504 16.109977058774945 H 0.0 **** 0.06
22245 H 84.11970892911174 95.00455786016173 14.454110748316964 H 0.0 **** 0.06
22246 C 145.36280799553313 26.367421046939484 20.219236201238935 C 0.0 **** -0.24
22247 H 144.50825454676962 26.582921458870658 20.86125715620851 H 0.0 **** 0.06
22248 H 145.2614600083261 25.36196930884691 19.807171387238647 H 0.0 **** 0.06
22249 H 146.28018016942994 26.429756754960636 20.803425717368356 H 0.0 **** 0.06
22250 H 145.3980807782505 27.091864730103765 19.4062460231387 H 0.0 **** 0.06
22251 C 7.108362194695523 56.1225903609257 125.89392408371171 C 0.0 **** -0.24
22252 H 6.5917118354395825 55.51239030754766 126.63478790364216 H 0.0 **** 0.06
22253 H 6.590626051237571 56.04986292540718 124.93741067079057 H 0.0 **** 0.06
22254 H 8.132405893105343 55.76739087563891 125.78151546256535 H 0.0 **** 0.06
22255 H 7.118395549471959 57.16183239260323 126.2238956995798 H 0.0 **** 0.06
22256 C 96.00037370531726 101.36084131463548 122.22847493476611 C 0.0 **** -0.24
22257 H 95.64498152987736 101.09292909358531 123.22339318914993 H 0.0 **** 0.06
22258 H 95.93881336249997 102.44225082763353 122.09950298811579 H 0.0 **** 0.06
22259 H 95.38191643926316 100.86901648925866 121.47700711073712 H 0.0 **** 0.06
22260 H 97.03578348962859 101.03916884806468 122.11399645106162 H 0.0 **** 0.06
22261 C 90.47810430414748 94.6169786227679 39.54447274502229 C 0.0 **** -0.24
22262 H 90.91267082209934 95.60759317249506 39.68277930240663 H 0.0 **** 0.06
22263 H 91.04218465192464 94.07686626298093 38.782610556495285 H 0.0 **** 0.06
22264 H 89.4408609813433 94.71623172462628 39.22695591188068 H 0.0 **** 0.06
22265 H 90.51994817890684 94.06839743910456 40.48526903426318 H 0.0 **** 0.06
22266 C 51.201833381251035 20.059039460306735 66.81699483088752 C 0.0 **** -0.24
22267 H 50.468861074887215 20.37096487904438 66.0734815524905 H 0.0 **** 0.06
22268 H 50.88955029822891 20.406075238556923 67.80270341128167 H 0.0 **** 0.06
22269 H 52.17328795348878 20.489368581446087 66.57162001091947 H 0.0 **** 0.06
22270 H 51.27638799003539 18.97195254747632 66.82093399703885 H 0.0 **** 0.06
22271 C 58.95262071708174 106.03184140462066 49.51375585896963 C 0.0 **** -0.24
22272 H 58.5746262691967 106.69821508158834 50.28899337661963 H 0.0 **** 0.06
22273 H 59.223354127071815 105.07401935191452 49.95891343407294 H 0.0 **** 0.06
22274 H 59.830554912937856 106.47720263457113 49.04796434922403 H 0.0 **** 0.06
22275 H 58.18025974571 105.87681178550515 48.76010324412775 H 0.0 **** 0.06
22276 C 4.294480778839116 127.36982591954452 145.5519960635169 C 0.0 **** -0.24
22277 H 4.283136657988766 128.1434183515615 146.31866801445608 H 0.0 **** 0.06
22278 H 4.09883050411635 126.40024393944407 146.01201098978586 H 0.0 **** 0.06
22279 H 5.2709895304145284 127.35146132697948 145.0685311979097 H 0.0 **** 0.06
22280 H 3.5254286945205244 127.5820820394514 144.8099508594405 H 0.0 **** 0.06
22281 C 101.38121124689442 4.47014223139638 110.1672981233991 C 0.0 **** -0.24
22282 H 101.90717057138531 4.775351149126436 111.07211203695961 H 0.0 **** 0.06
22283 H 101.16539170391755 3.4018604919588427 110.21633931522264 H 0.0 **** 0.06
22284 H 102.00597570486502 4.674697171588804 109.29834271142887 H 0.0 **** 0.06
22285 H 100.44806533076562 5.02649847879195 110.08389378068973 H 0.0 **** 0.06
22286 C 31.336888023487745 0.9071412182122778 13.40278056018088 C 0.0 **** -0.24
22287 H 31.424289542384088 1.2778362070737366 12.38214397588461 H 0.0 **** 0.06
22288 H 30.56576788865671 1.470469368701913 13.929275645846786 H 0.0 **** 0.06
22289 H 32.291029980955294 1.0300600734499703 13.916513987082396 H 0.0 **** 0.06
22290 H 31.067057888579093 -0.14877144438179357 13.38444907333713 H 0.0 **** 0.06
22291 C 82.46118825615935 45.62009875261937 113.6613861966256 C 0.0 **** -0.24
22292 H 81.86244079796941 45.24350055838022 112.83237404033962 H 0.0 **** 0.06
22293 H 81.98267416251733 46.50369113072627 114.08288072318744 H 0.0 **** 0.06
22294 H 83.45580298103275 45.88277262247195 113.30005820896564 H 0.0 **** 0.06
22295 H 82.54452389508319 44.85043343286246 114.4286425809719 H 0.0 **** 0.06
22296 C 17.575132858391754 11.015345238072399 89.54085380332228 C 0.0 **** -0.24
22297 H 17.84716706539281 9.963343857382597 89.62277664448358 H 0.0 **** 0.06
22298 H 17.1717334992218 11.360744847903021 90.49323818221043 H 0.0 **** 0.06
22299 H 16.82344949416958 11.137436367698143 88.76123353890097 H 0.0 **** 0.06
22300 H 18.459868813201297 11.600550666563322 89.28745914822426 H 0.0 **** 0.06
22301 C 65.64029301434692 3.664975938374951 26.4243304766608 C 0.0 **** -0.24
22302 H 65.43552484353398 4.511378916993344 25.768412867320222 H 0.0 **** 0.06
22303 H 65.97305460150403 2.8152779056642956 25.826949576121137 H 0.0 **** 0.06
22304 H 64.73280246555822 3.3965818647548183 26.96525045635721 H 0.0 **** 0.06
22305 H 66.42072724403135 3.9368007989377 27.135658524707225 H 0.0 **** 0.06
22306 C 39.55666196900086 54.32963925623102 47.30177124197928 C 0.0 **** -0.24
22307 H 40.3804775804978 54.58169291724596 47.969197393222416 H 0.0 **** 0.06
22308 H 39.7143650435236 53.33183198030133 46.89139542451079 H 0.0 **** 0.06
22309 H 39.510940874146996 55.054431299159205 46.489267734650966 H 0.0 **** 0.06
22310 H 38.619316527392044 54.349843298314 47.85864938074705 H 0.0 **** 0.06
22311 C 112.23524613491414 29.930754113845865 0.5977227296258434 C 0.0 **** -0.24
22312 H 112.57661705215195 30.79752139823978 1.1640629877940114 H 0.0 **** 0.06
22313 H 112.72424465517206 29.91867274993274 -0.3765156382874011 H 0.0 **** 0.06
22314 H 111.1550885367768 29.987800443457843 0.4622709435503225 H 0.0 **** 0.06
22315 H 112.48581450440948 29.01998902798988 1.141747869733706 H 0.0 **** 0.06
22316 C 42.306469059966105 68.29633606831426 106.16410747358246 C 0.0 **** -0.24
22317 H 42.15488284810277 67.28260371807123 106.53556037906834 H 0.0 **** 0.06
22318 H 41.87014245946733 68.38742638770373 105.1685756457005 H 0.0 **** 0.06
22319 H 43.37433746489077 68.50905812897822 106.11315362271951 H 0.0 **** 0.06
22320 H 41.82641936441206 69.00545824072113 106.83760571291519 H 0.0 **** 0.06
22321 C 98.44788312461499 35.24865279369564 107.92903848736499 C 0.0 **** -0.24
22322 H 98.46719406320764 35.816827335663646 106.99920320074683 H 0.0 **** 0.06
22323 H 99.32303562420277 35.50392222157356 108.52748193961521 H 0.0 **** 0.06
22324 H 98.45942347022209 34.182871247511514 107.70314168168407 H 0.0 **** 0.06
22325 H 97.54301730876958 35.49273599319858 108.48551592636632 H 0.0 **** 0.06
22326 C 85.81151677303518 109.64173744543388 75.64468222542851 C 0.0 **** -0.24
22327 H 86.65214845549234 108.95707254749243 75.53183608681266 H 0.0 **** 0.06
22328 H 85.53261700287938 109.70324867372085 76.69722782587618 H 0.0 **** 0.06
22329 H 84.96457082908735 109.27535505545438 75.06514846571307 H 0.0 **** 0.06
22330 H 86.09788692996436 110.63060977814041 75.28600750138841 H 0.0 **** 0.06
22331 C 107.15332789377986 5.276478616561235 105.0695068814654 C 0.0 **** -0.24
22332 H 106.19590586582136 4.754760518709929 105.05430077112541 H 0.0 **** 0.06
22333 H 107.13489565054032 6.047083411490291 105.84000437485085 H 0.0 **** 0.06
22334 H 107.33041763353386 5.737534351307829 104.09743241768538 H 0.0 **** 0.06
22335 H 107.95084015412972 4.565038130007451 105.28520006883619 H 0.0 **** 0.06
22336 C 97.95489357781794 134.65074495364877 49.1857277797439 C 0.0 **** -0.24
22337 H 98.54127716363574 134.0206015982832 48.51744152856078 H 0.0 **** 0.06
22338 H 97.2173186612645 135.2069053621616 48.60655184074139 H 0.0 **** 0.06
22339 H 98.61626731921697 135.34968451454782 49.69834770464347 H 0.0 **** 0.06
22340 H 97.44525306342496 134.02662789114828 49.92053073452733 H 0.0 **** 0.06
22341 C 132.24850126774194 39.63667881447671 17.5822492163515 C 0.0 **** -0.24
22342 H 131.85207376235152 39.35648657940803 16.605855607035608 H 0.0 **** 0.06
22343 H 133.2570788009638 39.237452925897884 17.691092963436574 H 0.0 **** 0.06
22344 H 131.6092533017003 39.228050027036005 18.364495611795746 H 0.0 **** 0.06
22345 H 132.27559612212676 40.72243574114256 17.664593532350693 H 0.0 **** 0.06
22346 C 73.40797833697687 129.17783432416041 23.153910175198206 C 0.0 **** -0.24
22347 H 72.44326117020617 129.09355076358807 22.652737546948046 H 0.0 **** 0.06
22348 H 73.3889713302149 128.6004033533008 24.07777871015014 H 0.0 **** 0.06
22349 H 73.60652777459705 130.22480364244245 23.381783467179275 H 0.0 **** 0.06
22350 H 74.19081224874552 128.7935812692902 22.50009785796027 H 0.0 **** 0.06
22351 C 91.52525687456199 79.78066433264209 67.41923603674076 C 0.0 **** -0.24
22352 H 90.71892264824733 80.4045381172941 67.03550638069873 H 0.0 **** 0.06
22353 H 91.10269510837766 78.90086222309102 67.9062450426539 H 0.0 **** 0.06
22354 H 92.11215108145035 80.34865012466406 68.14049340399902 H 0.0 **** 0.06
22355 H 92.16639968797833 79.46724505822749 66.59533789514694 H 0.0 **** 0.06
22356 C 1.1110240974352905 141.6350136062454 32.93809616635832 C 0.0 **** -0.24
22357 H 2.1018688245077897 142.00434530185157 32.672235761237594 H 0.0 **** 0.06
22358 H 1.174365761586131 141.05620212886413 33.85988303483453 H 0.0 **** 0.06
22359 H 0.7320670621851377 141.00334386722582 32.13564134843609 H 0.0 **** 0.06
22360 H 0.4371592960549435 142.4794925217162 33.08485623134447 H 0.0 **** 0.06
22361 C 36.672900247272906 53.817742643545785 14.533779276177228 C 0.0 **** -0.24
22362 H 37.46276420301032 53.55376384125374 15.236368758348 H 0.0 **** 0.06
22363 H 35.703558909510974 53.55541683861509 14.960436683227286 H 0.0 **** 0.06
22364 H 36.819056388522654 53.27171010522464 13.601617937915357 H 0.0 **** 0.06
22365 H 36.705165774195365 54.88915523725262 14.336518341277312 H 0.0 **** 0.06
22366 C 27.848592424369997 82.06799173373145 98.81565731230089 C 0.0 **** -0.24
22367 H 27.227414430153956 82.40378948332082 97.98535877345645 H 0.0 **** 0.06
22368 H 27.88551903063177 80.97857796106729 98.82459941760561 H 0.0 **** 0.06
22369 H 27.426361343065793 82.42586583941741 99.75393705447965 H 0.0 **** 0.06
22370 H 28.856755200391476 82.46458292548277 98.69662316219569 H 0.0 **** 0.06
22371 C 139.0969161554449 127.84243202223598 72.15446292986304 C 0.0 **** -0.24
22372 H 140.1305169809603 127.94933967860507 71.82595575438162 H 0.0 **** 0.06
22373 H 138.66992013080426 126.93754319817137 71.72033325609043 H 0.0 **** 0.06
22374 H 138.52037257330335 128.7080817708599 71.82953544059784 H 0.0 **** 0.06
22375 H 139.066844786018 127.77340463253151 73.24163532063416 H 0.0 **** 0.06
22376 C 42.63096980889675 60.09470561929747 138.34567051041134 C 0.0 **** -0.24
22377 H 42.77208567686124 60.108659934603054 139.42609008413604 H 0.0 **** 0.06
22378 H 42.626336366884786 59.06334264391094 137.99261831507246 H 0.0 **** 0.06
22379 H 43.44520759908414 60.639668251847155 137.86687254134984 H 0.0 **** 0.06
22380 H 41.68105219341142 60.56923874694672 138.09710908211147 H 0.0 **** 0.06
22381 C 78.14947440323083 72.45223275049652 27.77012085163659 C 0.0 **** -0.24
22382 H 79.2115139392692 72.3565581019063 27.997348289780177 H 0.0 **** 0.06
22383 H 77.92555530956726 71.9101929797657 26.851025074111078 H 0.0 **** 0.06
22384 H 77.90081946331989 73.50567872311713 27.64027396215559 H 0.0 **** 0.06
22385 H 77.5628118465153 72.03846149484197 28.589533588182732 H 0.0 **** 0.06
22386 C 12.658207995506018 5.674331275755009 13.685119498405662 C 0.0 **** -0.24
22387 H 13.547274481056377 5.1292690557143885 14.004665933575595 H 0.0 **** 0.06
22388 H 12.943795498924942 6.67271395017255 13.35345593448389 H 0.0 **** 0.06
22389 H 11.961983024884972 5.754054769342787 14.520006827409702 H 0.0 **** 0.06
22390 H 12.180724484272247 5.140725172990727 12.863238165771541 H 0.0 **** 0.06
22391 C 134.52546212683075 112.80220021113946 43.79851274527523 C 0.0 **** -0.24
22392 H 134.34329502204392 112.77720256840378 44.87216636355768 H 0.0 **** 0.06
22393 H 133.6935876878354 113.30039986267404 43.30081814682826 H 0.0 **** 0.06
22394 H 134.6159553583643 111.78319957767654 43.42155969226752 H 0.0 **** 0.06
22395 H 135.4481266933674 113.34702822769678 43.59837671452655 H 0.0 **** 0.06
22396 C 10.639970097608192 13.064431082322386 31.669980697532402 C 0.0 **** -0.24
22397 H 11.13073862105221 13.552942514374244 30.828472103927027 H 0.0 **** 0.06
22398 H 10.254484001283899 12.095796212585256 31.35299359759628 H 0.0 **** 0.06
22399 H 9.817372337669987 13.686536889052356 32.02163842026513 H 0.0 **** 0.06
22400 H 11.359975575514504 12.923304096825213 32.476996959815175 H 0.0 **** 0.06
22401 C 100.51637551900892 40.82169514511463 78.36136223241752 C 0.0 **** -0.24
22402 H 101.2330711981139 40.254511175291455 78.95398224262078 H 0.0 **** 0.06
22403 H 99.60289681046865 40.23917191449645 78.23964020201504 H 0.0 **** 0.06
22404 H 100.94396374509543 41.03554891269479 77.3816526916607 H 0.0 **** 0.06
22405 H 100.28576366827512 41.75805879568529 78.86886903952364 H 0.0 **** 0.06
22406 C 73.33058775636522 15.982432408482396 14.722425815754335 C 0.0 **** -0.24
22407 H 72.29418619738665 15.76842072868714 14.459801101069274 H 0.0 **** 0.06
22408 H 73.56945655275167 17.0098394022217 14.448244396806018 H 0.0 **** 0.06
22409 H 73.98947085026873 15.300311421666983 14.186058515473519 H 0.0 **** 0.06
22410 H 73.46771330264932 15.850576715916894 15.79618165517207 H 0.0 **** 0.06
22411 C 31.97095675739007 141.84525533596386 27.478990065785553 C 0.0 **** -0.24
22412 H 32.2862832751767 142.05155342445434 28.501502245121543 H 0.0 **** 0.06
22413 H 30.882996884998477 141.84565144652834 27.427260206974182 H 0.0 **** 0.06
22414 H 32.349603385894966 140.8701874391291 27.171986424244977 H 0.0 **** 0.06
22415 H 32.36709333659704 142.61322545637756 26.814747193589227 H 0.0 **** 0.06
22416 C 71.24548650773272 119.53426285759285 67.14164032256195 C 0.0 **** -0.24
22417 H 72.18387965432134 119.71002714263084 67.66640985350308 H 0.0 **** 0.06
22418 H 71.4533791619044 119.19487512814682 66.12727476882645 H 0.0 **** 0.06
22419 H 70.6706578903798 120.46001526677999 67.10535723021295 H 0.0 **** 0.06
22420 H 70.67210447678632 118.77182855197161 67.66980025380052 H 0.0 **** 0.06
22421 C 3.589142823388073 81.13370844455478 75.53280655332759 C 0.0 **** -0.24
22422 H 3.1254025312452143 82.04809747979711 75.16099398350241 H 0.0 **** 0.06
22423 H 3.5387529263102238 81.11714776374075 76.62178062266406 H 0.0 **** 0.06
22424 H 4.6324459977548145 81.10281651392941 75.21681743475341 H 0.0 **** 0.06
22425 H 3.061422466245034 80.26966960934128 75.1300547990594 H 0.0 **** 0.06
22426 C 47.63728655438638 101.39113366050464 77.71261452662682 C 0.0 **** -0.24
22427 H 46.813216412200575 101.96561587967199 77.28854199219792 H 0.0 **** 0.06
22428 H 47.448923720154596 101.21288448456454 78.77121764454886 H 0.0 **** 0.06
22429 H 48.56674998938951 101.9500148974451 77.59840667024065 H 0.0 **** 0.06
22430 H 47.72074694786676 100.4373334226259 77.19247192302161 H 0.0 **** 0.06
22431 C 115.57002516090701 65.91073413231017 51.524323478429594 C 0.0 **** -0.24
22432 H 115.95941505912849 65.12193223128476 52.16811690281712 H 0.0 **** 0.06
22433 H 114.55801137659647 66.16929062474172 51.83837220810315 H 0.0 **** 0.06
22434 H 115.5516356952303 65.56132594292305 50.491598598334164 H 0.0 **** 0.06
22435 H 116.20946568217569 66.79033767035148 51.59992996497439 H 0.0 **** 0.06
22436 C 66.79906692700268 47.61920715905313 62.825958178479254 C 0.0 **** -0.24
22437 H 67.58077499610738 48.14789445946758 62.281785349016275 H 0.0 **** 0.06
22438 H 66.52117872306147 48.191823466861024 63.71080539974048 H 0.0 **** 0.06
22439 H 67.16683341110664 46.638270222343294 63.12827832346113 H 0.0 **** 0.06
22440 H 65.92708439599093 47.4971594612752 62.18309525387775 H 0.0 **** 0.06
22441 C 29.78987965414565 54.176455204077314 125.52350034728255 C 0.0 **** -0.24
22442 H 29.115318628259466 54.85229345868814 126.0489772394843 H 0.0 **** 0.06
22443 H 29.95072695134742 54.541805197172835 124.50841586908628 H 0.0 **** 0.06
22444 H 29.35005694413644 53.179815322915175 125.48652971785864 H 0.0 **** 0.06
22445 H 30.743731687627736 54.133553689927794 126.04964450260651 H 0.0 **** 0.06
22446 C 51.566156417029276 37.370744420010055 59.661569877005604 C 0.0 **** -0.24
22447 H 50.47909708740423 37.312290779791795 59.72406885593713 H 0.0 **** 0.06
22448 H 51.9953851063795 37.202885713253465 60.64953551413899 H 0.0 **** 0.06
22449 H 51.855999240934295 38.3579176782024 59.30250725922343 H 0.0 **** 0.06
22450 H 51.930964929286006 36.61055907431307 58.97172871325952 H 0.0 **** 0.06
22451 C 52.44782660116144 111.73877939434789 26.72259078968819 C 0.0 **** -0.24
22452 H 52.79356603121347 112.52981757690912 26.05579335792396 H 0.0 **** 0.06
22453 H 51.555809825441315 111.27516874351915 26.303495272352365 H 0.0 **** 0.06
22454 H 52.21252972582519 112.16393228697052 27.698200490038367 H 0.0 **** 0.06
22455 H 53.23100878400291 110.98950046311143 26.832156254721312 H 0.0 **** 0.06
22456 C 88.30743354494471 87.80329032506239 133.07701997698103 C 0.0 **** -0.24
22457 H 88.05204095692467 87.41198624556165 132.09221205477388 H 0.0 **** 0.06
22458 H 89.01800491593549 88.62272274298641 132.96897492371983 H 0.0 **** 0.06
22459 H 88.75299827595956 87.011117197271 133.67874641331923 H 0.0 **** 0.06
22460 H 87.40384957638265 88.1674370509603 133.5671864015968 H 0.0 **** 0.06
22461 C 111.95271376087015 66.99765044491093 77.55781854267354 C 0.0 **** -0.24
22462 H 110.93288014706133 66.65249407012075 77.38230655928805 H 0.0 **** 0.06
22463 H 112.24138389331853 67.69223589425954 76.76919538343259 H 0.0 **** 0.06
22464 H 112.62992639473731 66.14344123842707 77.55621080022456 H 0.0 **** 0.06
22465 H 112.0049546726114 67.50068781121288 78.52336356467276 H 0.0 **** 0.06
22466 C 47.429477066493746 129.43051931046412 1.6758110276052776 C 0.0 **** -0.24
22467 H 47.1424133141752 130.42471629413137 1.333383435768127 H 0.0 **** 0.06
22468 H 46.76099385564302 129.11664661929376 2.4783464385322986 H 0.0 **** 0.06
22469 H 48.454031791174984 129.454726844471 2.0450974277418084 H 0.0 **** 0.06
22470 H 47.35804221559624 128.7256788255226 0.8465360944834686 H 0.0 **** 0.06
22471 C 96.90125769200588 55.02430563073267 91.30502497220988 C 0.0 **** -0.24
22472 H 97.18644764124879 55.00814040452724 92.35681927929042 H 0.0 **** 0.06
22473 H 96.07023313880018 55.71615634938422 91.1646586335085 H 0.0 **** 0.06
22474 H 96.59800082606111 54.023978437702226 90.99611289070735 H 0.0 **** 0.06
22475 H 97.75057567582103 55.348084821560974 90.70360674454017 H 0.0 **** 0.06
22476 C 28.795945690955932 7.483233059982787 28.76097851418482 C 0.0 **** -0.24
22477 H 29.304336318043624 6.881971153233973 28.00718013929535 H 0.0 **** 0.06
22478 H 27.717542022855866 7.404144831292832 28.622614905811083 H 0.0 **** 0.06
22479 H 29.099678618291364 8.525315351415781 28.66015830715591 H 0.0 **** 0.06
22480 H 29.06314655018059 7.121883116868137 29.75403934691557 H 0.0 **** 0.06
22481 C 15.43182300480344 36.70541491631039 138.13942305036542 C 0.0 **** -0.24
22482 H 14.617969879068745 36.12401911740264 137.70480717154305 H 0.0 **** 0.06
22483 H 15.880226116542765 36.144936912733016 138.9596083615521 H 0.0 **** 0.06
22484 H 15.04104800480723 37.65096153322716 138.51529721618235 H 0.0 **** 0.06
22485 H 16.18544687719956 36.90089708655529 137.3767464052908 H 0.0 **** 0.06
22486 C 49.099429731970844 108.02041779826385 23.73242058362169 C 0.0 **** -0.24
22487 H 49.6834031088419 107.45507357691673 24.459126804051863 H 0.0 **** 0.06
22488 H 48.15849580825942 107.50348489193556 23.54138744447519 H 0.0 **** 0.06
22489 H 49.6623498125755 108.10862059760166 22.80363852619729 H 0.0 **** 0.06
22490 H 48.89353876783363 109.01558956452425 24.128320853611115 H 0.0 **** 0.06
22491 C 69.32799681401369 9.862474825214747 34.93998719777658 C 0.0 **** -0.24
22492 H 68.5233537390477 9.649295624737391 34.23701564678875 H 0.0 **** 0.06
22493 H 70.28970564134964 9.696137848079758 34.45303226488821 H 0.0 **** 0.06
22494 H 69.23977867297718 9.202340882041142 35.80356156415743 H 0.0 **** 0.06
22495 H 69.2602425953184 10.899361904458459 35.26675221612289 H 0.0 **** 0.06
22496 C 76.62185417713322 55.89787129556146 55.04775889293012 C 0.0 **** -0.24
22497 H 77.06367347880635 55.30166703752877 54.24899728318687 H 0.0 **** 0.06
22498 H 77.34375033305312 56.01222966027933 55.85701660523347 H 0.0 **** 0.06
22499 H 75.7302234305782 55.39685382143864 55.423866552648406 H 0.0 **** 0.06
22500 H 76.35172482116941 56.8802237927643 54.659770984622725 H 0.0 **** 0.06
22501 C 72.93793495934847 65.1339088591819 32.575854767583024 C 0.0 **** -0.24
22502 H 72.89577796098274 65.55975200083516 33.57853433722292 H 0.0 **** 0.06
22503 H 73.88906988427507 65.39475199181214 32.11079439578859 H 0.0 **** 0.06
22504 H 72.11910359440512 65.53303848350694 31.976668931441353 H 0.0 **** 0.06
22505 H 72.84869490734548 64.04952978802709 32.63775889400179 H 0.0 **** 0.06
22506 C 47.0786825259451 61.88538986846767 129.09915629839134 C 0.0 **** -0.24
22507 H 46.75742144992664 61.18699619370983 129.87120710335952 H 0.0 **** 0.06
22508 H 48.141722640634725 62.09711556204155 129.22024677976043 H 0.0 **** 0.06
22509 H 46.51133043344329 62.8121377203163 129.18848124462875 H 0.0 **** 0.06
22510 H 46.90502398706131 61.44739795221993 128.11691415286805 H 0.0 **** 0.06
22511 C 75.3898273030028 114.72809053474458 58.61456587525532 C 0.0 **** -0.24
22512 H 75.94342679224694 115.35782706558308 57.917021274911235 H 0.0 **** 0.06
22513 H 75.67210575268827 114.9845097392195 59.6364474894807 H 0.0 **** 0.06
22514 H 75.62331576163322 113.68097276046097 58.42331374126135 H 0.0 **** 0.06
22515 H 74.32099708248526 114.89268722634273 58.48077217521936 H 0.0 **** 0.06
22516 C 22.153207738129538 86.00862728774052 129.32465797825796 C 0.0 **** -0.24
22517 H 22.89225439642621 85.31968672955699 129.7348395029367 H 0.0 **** 0.06
22518 H 22.122511375594456 85.90467395031465 128.24009201423763 H 0.0 **** 0.06
22519 H 22.425637020326633 87.03085830075648 129.58501137013474 H 0.0 **** 0.06
22520 H 21.17250696655941 85.77723856646637 129.73957498821196 H 0.0 **** 0.06
22521 C 34.36900039789431 62.90518934482674 121.36413918407202 C 0.0 **** -0.24
22522 H 33.9293039014667 62.39334705639334 120.50807589100471 H 0.0 **** 0.06
22523 H 33.948046307469575 63.90881366292223 121.44204222943075 H 0.0 **** 0.06
22524 H 35.44879661233362 62.97392198226805 121.23095558818211 H 0.0 **** 0.06
22525 H 34.14919703790824 62.34689997581819 122.2735814941792 H 0.0 **** 0.06
22526 C 75.03691878894193 136.27834676244402 105.48625243704313 C 0.0 **** -0.24
22527 H 74.8673492948351 136.21012127054686 104.4118854854909 H 0.0 **** 0.06
22528 H 74.5906736752438 135.41564928299482 105.98086263742098 H 0.0 **** 0.06
22529 H 74.58134784936948 137.19226200363087 105.86804553153789 H 0.0 **** 0.06
22530 H 76.1093713040782 136.29730852342888 105.68400737921806 H 0.0 **** 0.06
22531 C 80.52237463463081 122.4479897314532 80.71623264864547 C 0.0 **** -0.24
22532 H 80.80880753661869 121.5384160433368 80.18790811569659 H 0.0 **** 0.06
22533 H 79.74226932955095 122.96352948248744 80.15534459284265 H 0.0 **** 0.06
22534 H 81.39050625023982 123.0992610649437 80.81542450636533 H 0.0 **** 0.06
22535 H 80.14789960835328 122.18975306206029 81.70621806523536 H 0.0 **** 0.06
22536 C 125.59013501034653 133.50682793820943 127.24943505130508 C 0.0 **** -0.24
22537 H 125.25449498762853 133.44766836981594 126.21431776517102 H 0.0 **** 0.06
22538 H 125.04735735659611 134.30131041049617 127.76189961646978 H 0.0 **** 0.06
22539 H 126.65793872224955 133.72393178029407 127.27208543940537 H 0.0 **** 0.06
22540 H 125.40163614051446 132.55662863772469 127.74763410468762 H 0.0 **** 0.06
22541 C 95.67199897991094 59.515329970453564 80.52822084560981 C 0.0 **** -0.24
22542 H 96.27865895842575 60.293220333873734 80.99276813769814 H 0.0 **** 0.06
22543 H 94.9486608497807 59.13948330079276 81.25127000774015 H 0.0 **** 0.06
22544 H 96.31701224137461 58.70016404849085 80.2002859319376 H 0.0 **** 0.06
22545 H 95.14546837309855 59.92977014908385 79.66847567567137 H 0.0 **** 0.06
22546 C 21.148215781888837 93.66893638597166 103.44155949524277 C 0.0 **** -0.24
22547 H 21.228709121411768 94.65617313578014 103.89637628575488 H 0.0 **** 0.06
22548 H 20.203851785446062 93.21004482086842 103.73389331077944 H 0.0 **** 0.06
22549 H 21.976366596809697 93.04489842503074 103.77890914973835 H 0.0 **** 0.06
22550 H 21.18553006418378 93.76570121676795 102.3565036864197 H 0.0 **** 0.06
22551 C 18.264949061575848 43.38437862794065 131.27898760082263 C 0.0 **** -0.24
22552 H 17.34029522902935 43.10206893481514 131.78148275848181 H 0.0 **** 0.06
22553 H 18.038916822475073 43.72736406701459 130.26890277708577 H 0.0 **** 0.06
22554 H 18.93048496328319 42.522887713304584 131.23097475136368 H 0.0 **** 0.06
22555 H 18.749546632389382 44.187355104764066 131.83474373848694 H 0.0 **** 0.06
22556 C 62.60962078830747 132.5800780406838 99.57144645790801 C 0.0 **** -0.24
22557 H 63.38376972839038 131.9499013081764 100.00890112688688 H 0.0 **** 0.06
22558 H 62.29066687485812 132.15557342419552 98.61898114472905 H 0.0 **** 0.06
22559 H 63.00683677394679 133.58218587656543 99.40873118879965 H 0.0 **** 0.06
22560 H 61.75837403294139 132.63244267809918 100.24994758999955 H 0.0 **** 0.06
22561 C 32.925777885901084 80.52819289505837 16.579915304088672 C 0.0 **** -0.24
22562 H 33.078683349361825 80.37924727264284 15.511296105571944 H 0.0 **** 0.06
22563 H 33.36990814589569 79.69757625153703 17.1295890738283 H 0.0 **** 0.06
22564 H 31.8576181298223 80.57430784808015 16.79118533656964 H 0.0 **** 0.06
22565 H 33.398116658974345 81.46094440068042 16.88738983920399 H 0.0 **** 0.06
22566 C 70.185087895914 105.89912948362856 35.30442043130028 C 0.0 **** -0.24
22567 H 69.2758029940424 105.64016357488767 34.76122382076914 H 0.0 **** 0.06
22568 H 71.0485663664941 105.47317014394234 34.79131950108383 H 0.0 **** 0.06
22569 H 70.12971629871265 105.49949163832703 36.31705090653766 H 0.0 **** 0.06
22570 H 70.28619892988657 106.98332339332735 35.34639653674777 H 0.0 **** 0.06
22571 C 101.63089324367076 61.85782310214546 56.11184335367801 C 0.0 **** -0.24
22572 H 101.40138851722821 62.045615163903335 55.0629750984707 H 0.0 **** 0.06
22573 H 102.70877305277548 61.91248391290031 56.2637420036408 H 0.0 **** 0.06
22574 H 101.27302319536642 60.865908003175036 56.38991962629086 H 0.0 **** 0.06
22575 H 101.13819892131744 62.60773065629019 56.7308311306532 H 0.0 **** 0.06
22576 C 10.294997563488224 0.6349457771599987 102.39913908592533 C 0.0 **** -0.24
22577 H 10.177132611665044 0.7934682108669335 103.47076278706214 H 0.0 **** 0.06
22578 H 9.571547190609316 -0.1066083561751725 102.05866152421152 H 0.0 **** 0.06
22579 H 11.304895353541681 0.2788534530158131 102.19337551420894 H 0.0 **** 0.06
22580 H 10.126729849130491 1.5746049565553335 101.87213952368656 H 0.0 **** 0.06
22581 C 44.881544713623924 2.795921250010082 118.04942242311215 C 0.0 **** -0.24
22582 H 44.33992339039759 2.443644290879888 118.92715368742007 H 0.0 **** 0.06
22583 H 44.91234993774796 3.885696422793359 118.05525584436093 H 0.0 **** 0.06
22584 H 44.37372592438973 2.451603325019647 117.1476008161515 H 0.0 **** 0.06
22585 H 45.898252876134336 2.40329482561026 118.06627178490378 H 0.0 **** 0.06
22586 C 27.567750068169488 53.19842794938509 60.15499459078082 C 0.0 **** -0.24
22587 H 28.31878284573466 52.5721593635499 59.673611877114084 H 0.0 **** 0.06
22588 H 26.96510853261705 53.693473749121864 59.39379178362057 H 0.0 **** 0.06
22589 H 28.062418717718472 53.94881353586359 60.77197296142225 H 0.0 **** 0.06
22590 H 26.92589336658108 52.57882800977316 60.78120284873036 H 0.0 **** 0.06
22591 C 88.01635477221423 102.07266322250194 86.8153093770695 C 0.0 **** -0.24
22592 H 87.69828674941715 103.1106678313694 86.89986089616514 H 0.0 **** 0.06
22593 H 88.34840689943358 101.71281743462333 87.79001003052707 H 0.0 **** 0.06
22594 H 88.83805660732588 102.00090180492535 86.10185626408037 H 0.0 **** 0.06
22595 H 87.18071117120736 101.46406337981318 86.46912601672273 H 0.0 **** 0.06
22596 C 98.20128157494672 15.160520404049876 144.49621350903163 C 0.0 **** -0.24
22597 H 97.71813857255282 15.53439753401176 145.39896299267326 H 0.0 **** 0.06
22598 H 99.18468670361612 15.619763406007273 144.3931788717547 H 0.0 **** 0.06
22599 H 97.59133897851028 15.408506132621511 143.6283437355459 H 0.0 **** 0.06
22600 H 98.3112275759811 14.078133866229749 144.56550399327577 H 0.0 **** 0.06
22601 C 11.795057820585498 77.61955079633115 45.77979206420659 C 0.0 **** -0.24
22602 H 11.76125792897193 76.93964556600851 46.630403780187166 H 0.0 **** 0.06
22603 H 10.873311195366568 78.20184059901777 45.74465348005113 H 0.0 **** 0.06
22604 H 11.898364128854894 77.04607027052924 44.85901589264995 H 0.0 **** 0.06
22605 H 12.645562038788228 78.29249524782124 45.88698450311253 H 0.0 **** 0.06
22606 C 106.7289274150847 31.58493734745832 26.48908614519638 C 0.0 **** -0.24
22607 H 107.5341579688964 31.12012523544564 27.0582630645701 H 0.0 **** 0.06
22608 H 106.51264149817776 30.981549921387966 25.60682260036441 H 0.0 **** 0.06
22609 H 107.03377814330373 32.58439597866828 26.17910006895795 H 0.0 **** 0.06
22610 H 105.83640088650829 31.65346111322981 27.110999953194835 H 0.0 **** 0.06
22611 C 110.27434175822076 100.08820512584911 53.74815639702925 C 0.0 **** -0.24
22612 H 109.20905309646459 99.9370798460941 53.92266747034614 H 0.0 **** 0.06
22613 H 110.41412771614601 100.9060818796263 53.0411179189156 H 0.0 **** 0.06
22614 H 110.70791374696456 99.17577078190432 53.33946119154143 H 0.0 **** 0.06
22615 H 110.76593718737472 100.33392403996504 54.69032045717512 H 0.0 **** 0.06
22616 C 104.60352052337626 49.738824473647384 117.62944314154583 C 0.0 **** -0.24
22617 H 104.87274217393266 48.70869016155305 117.86250728039528 H 0.0 **** 0.06
22618 H 103.69504237384663 50.00857738147121 118.16834362856093 H 0.0 **** 0.06
22619 H 104.43384204143572 49.836347740680566 116.55783208420337 H 0.0 **** 0.06
22620 H 105.41518787330469 50.40314996599736 117.93026494915193 H 0.0 **** 0.06
22621 C 91.58644491690252 90.15174567048362 85.23861849366016 C 0.0 **** -0.24
22622 H 91.77767417178043 89.79064409031525 86.24882138902642 H 0.0 **** 0.06
22623 H 91.97314027050423 89.43184263112835 84.51646666334084 H 0.0 **** 0.06
22624 H 92.08159541130343 91.1120418393989 85.09626284506868 H 0.0 **** 0.06
22625 H 90.51297322105012 90.27189606776236 85.0936520039348 H 0.0 **** 0.06
22626 C 89.32114766077437 69.7392200223323 126.62562184780835 C 0.0 **** -0.24
22627 H 89.32542028810317 70.81364319917027 126.81125996744575 H 0.0 **** 0.06
22628 H 88.30112603537059 69.36239688810286 126.69975752323413 H 0.0 **** 0.06
22629 H 89.9481952445492 69.2412334768351 127.36539927365423 H 0.0 **** 0.06
22630 H 89.71097595407996 69.54171452137128 125.62660612482668 H 0.0 **** 0.06
22631 C 103.72517853040878 18.608140511235064 113.19906198413481 C 0.0 **** -0.24
22632 H 104.12194037957403 19.083456789854807 114.09649520964494 H 0.0 **** 0.06
22633 H 103.58548617004867 19.359517548445638 112.42188279743102 H 0.0 **** 0.06
22634 H 102.76810829695143 18.139939374839486 113.42853562026365 H 0.0 **** 0.06
22635 H 104.42637124984384 17.850349407002767 112.84963058110542 H 0.0 **** 0.06
22636 C 12.692739200730927 95.82863355520573 135.8057027879329 C 0.0 **** -0.24
22637 H 12.736968927343874 95.79142669325617 136.893967580089 H 0.0 **** 0.06
22638 H 11.89879898415785 96.50984719420534 135.49766405911345 H 0.0 **** 0.06
22639 H 12.486977296560532 94.83202674135615 135.41580950640372 H 0.0 **** 0.06
22640 H 13.64693839014614 96.1818320147702 135.41522534337372 H 0.0 **** 0.06
22641 C 141.77452511861995 102.06278633958777 53.25489007560104 C 0.0 **** -0.24
22642 H 142.51463443703184 102.47588202136801 52.56900153968304 H 0.0 **** 0.06
22643 H 140.8365910125543 101.90504426451993 52.72360682459305 H 0.0 **** 0.06
22644 H 141.61468099771125 102.75962230567791 54.078515263635765 H 0.0 **** 0.06
22645 H 142.1348228262524 101.11186766824626 53.64774774919643 H 0.0 **** 0.06
22646 C 138.52483413071576 102.44981618605652 92.43748632692325 C 0.0 **** -0.24
22647 H 138.14363432289917 102.79923086012366 93.39708676167092 H 0.0 **** 0.06
22648 H 138.46148381300935 101.36194644723196 92.39639969524706 H 0.0 **** 0.06
22649 H 139.5636881888992 102.75799277325979 92.32634558192495 H 0.0 **** 0.06
22650 H 137.93014087111933 102.88066456191942 91.63134766255527 H 0.0 **** 0.06
22651 C 136.92357745461416 25.702542773980866 12.143379580357752 C 0.0 **** -0.24
22652 H 137.82079682937112 25.877093479003577 11.549528300521182 H 0.0 **** 0.06
22653 H 136.36691085430544 26.635450969975835 12.242326902943113 H 0.0 **** 0.06
22654 H 137.20850488692207 25.342509227484328 13.132335156913285 H 0.0 **** 0.06
22655 H 136.30049796556975 24.95719763078334 11.651033787300157 H 0.0 **** 0.06
22656 C 68.50016378220471 89.75250293782955 60.35585175425297 C 0.0 **** -0.24
22657 H 67.71384010056528 90.13398814827838 59.70478955942704 H 0.0 **** 0.06
22658 H 69.40207630384913 89.575338382111 59.76999134568351 H 0.0 **** 0.06
22659 H 68.17303570628809 88.81686519966695 60.810742066365606 H 0.0 **** 0.06
22660 H 68.71060589675864 90.48185577843611 61.13691536760163 H 0.0 **** 0.06
22661 C 53.309868045250454 61.03631694609827 82.74031722190654 C 0.0 **** -0.24
22662 H 53.11004172191534 60.5496175470723 83.69420975853637 H 0.0 **** 0.06
22663 H 52.42946860140228 61.59945453281601 82.42798270988469 H 0.0 **** 0.06
22664 H 53.54356710913589 60.28167613280935 81.98912956289666 H 0.0 **** 0.06
22665 H 54.15482219745061 61.71585153518764 82.8486227647734 H 0.0 **** 0.06
22666 C 63.52859832026169 39.01069403148101 88.2036633103628 C 0.0 **** -0.24
22667 H 63.926332710362175 38.23767220171416 88.86150563185666 H 0.0 **** 0.06
22668 H 63.08319571543865 38.54433592007004 87.32423930652556 H 0.0 **** 0.06
22669 H 64.33455471964615 39.67603231738418 87.89519594898474 H 0.0 **** 0.06
22670 H 62.76862292335275 39.58320733221897 88.7363234786367 H 0.0 **** 0.06
22671 C 101.68733764425114 61.80813737595463 144.25299647927335 C 0.0 **** -0.24
22672 H 102.77551545922626 61.7548192385853 144.22535412540134 H 0.0 **** 0.06
22673 H 101.27055241135804 61.11822906925198 143.51823627491888 H 0.0 **** 0.06
22674 H 101.36741850782255 62.82460262536284 144.01985249350668 H 0.0 **** 0.06
22675 H 101.33512439591983 61.53549717943298 145.24749686512862 H 0.0 **** 0.06
22676 C 73.37306109555286 97.27142007797715 136.5163923331521 C 0.0 **** -0.24
22677 H 72.87417548378426 96.6199577660643 135.79815007232781 H 0.0 **** 0.06
22678 H 73.87703814477968 98.07924210090846 135.98504626485558 H 0.0 **** 0.06
22679 H 74.10648406508744 96.69485931737673 137.08002903336703 H 0.0 **** 0.06
22680 H 72.63574046452823 97.69041424695303 137.20057800616024 H 0.0 **** 0.06
22681 C 43.881535956688595 50.26382452660802 16.7183526286083 C 0.0 **** -0.24
22682 H 44.04300390043261 49.286252605305776 17.171190436795058 H 0.0 **** 0.06
22683 H 43.07211805618704 50.77608625668259 17.2383521217252 H 0.0 **** 0.06
22684 H 43.61821837308344 50.13909212183427 15.66759261195375 H 0.0 **** 0.06
22685 H 44.79484661316269 50.85456603259016 16.795118856394623 H 0.0 **** 0.06
22686 C 3.7146381474041164 66.21694780071816 96.62690128503277 C 0.0 **** -0.24
22687 H 3.078542141562565 67.01765430920769 97.00340072562375 H 0.0 **** 0.06
22688 H 4.489337969557113 66.63921625926031 95.98713694065754 H 0.0 **** 0.06
22689 H 3.1117942863108112 65.5147193643518 96.05204795534465 H 0.0 **** 0.06
22690 H 4.178066959407232 65.69663517579941 97.46541152725953 H 0.0 **** 0.06
22691 C 100.20679218826065 28.163494247438216 45.03365358177058 C 0.0 **** -0.24
22692 H 100.53636530685105 27.932867957896768 46.047138168663864 H 0.0 **** 0.06
22693 H 99.1295554762514 28.013896552088042 44.95983285635978 H 0.0 **** 0.06
22694 H 100.7142995653937 27.506120389929244 44.32853109765564 H 0.0 **** 0.06
22695 H 100.44675461667954 29.200919089812388 44.80210100188543 H 0.0 **** 0.06
22696 C 101.57465509350155 93.64987317251934 144.0555688506695 C 0.0 **** -0.24
22697 H 101.55066441941784 94.73435366965973 143.9428415196789 H 0.0 **** 0.06
22698 H 101.48189946427746 93.39214416384004 145.11111141049918 H 0.0 **** 0.06
22699 H 102.51914479388398 93.26582707826755 143.66944099157058 H 0.0 **** 0.06
22700 H 100.74790933045995 93.20809305232976 143.4992670735748 H 0.0 **** 0.06
22701 C 108.8670143720553 70.40633133023307 90.03773340572279 C 0.0 **** -0.24
22702 H 109.1208485769918 71.43361861604723 90.29947169490922 H 0.0 **** 0.06
22703 H 109.24019306184728 69.73247075582212 90.80930032620307 H 0.0 **** 0.06
22704 H 109.32350907659982 70.15233632590605 89.08091731480853 H 0.0 **** 0.06
22705 H 107.78415435375312 70.30881719839323 89.96219495121653 H 0.0 **** 0.06
22706 C 140.61561625891332 54.033493428375905 54.20222690249932 C 0.0 **** -0.24
22707 H 140.58534602757314 55.118337714240155 54.2993322420312 H 0.0 **** 0.06
22708 H 140.84364878208166 53.76803956285157 53.17000197374114 H 0.0 **** 0.06
22709 H 139.64765190324343 53.61648773619123 54.48099055716017 H 0.0 **** 0.06
22710 H 141.38724050240168 53.63168018795024 54.86021103399361 H 0.0 **** 0.06
22711 C 4.548351184300969 48.84428625399315 67.64465045391992 C 0.0 **** -0.24
22712 H 4.05228931915002 49.81486640375488 67.6311336764804 H 0.0 **** 0.06
22713 H 5.42813240385243 48.876393214549694 67.00150811324215 H 0.0 **** 0.06
22714 H 3.8597630617615835 48.08023505257705 67.28255502929662 H 0.0 **** 0.06
22715 H 4.852066796262619 48.606222099142144 68.6639910132985 H 0.0 **** 0.06
22716 C 36.5988987936087 112.24388491786749 24.573599318668357 C 0.0 **** -0.24
22717 H 35.62252016173227 112.00181442622215 24.99227759791286 H 0.0 **** 0.06
22718 H 36.55617028525063 112.16930442547738 23.48704379027427 H 0.0 **** 0.06
22719 H 37.342294375284695 111.54551436680714 24.957546534614096 H 0.0 **** 0.06
22720 H 36.87427850080411 113.26013584579022 24.858144620361003 H 0.0 **** 0.06
22721 C 55.50032776141967 29.50229498547779 5.2797805765780765 C 0.0 **** -0.24
22722 H 55.23843245495249 29.76841883389166 6.303927465595933 H 0.0 **** 0.06
22723 H 54.6470012574016 29.024200873456998 4.798735052876026 H 0.0 **** 0.06
22724 H 56.34592635201767 28.814380007175146 5.287775104806116 H 0.0 **** 0.06
22725 H 55.77006394790368 30.40341724404017 4.729360786364083 H 0.0 **** 0.06
22726 C 126.46628853783815 114.04490490406089 63.21004033177827 C 0.0 **** -0.24
22727 H 125.88738009098927 113.3700177159234 62.57995290235597 H 0.0 **** 0.06
22728 H 126.85568524818004 113.49669830867008 64.06794803657164 H 0.0 **** 0.06
22729 H 125.82761342611738 114.85753818734001 63.5557716323281 H 0.0 **** 0.06
22730 H 127.2970399090945 114.45538133215591 62.63415991663476 H 0.0 **** 0.06
22731 C 19.874383977932652 108.15250198161782 53.86907949747447 C 0.0 **** -0.24
22732 H 18.925290642513417 108.32265257473061 53.3622812674226 H 0.0 **** 0.06
22733 H 20.695178978823805 108.40066917812437 53.195845121902664 H 0.0 **** 0.06
22734 H 19.947846409186837 107.10371161918941 54.15967890853591 H 0.0 **** 0.06
22735 H 19.930158001264914 108.78075136618982 54.75809123395848 H 0.0 **** 0.06
22736 C 10.95984209904978 113.15531238969565 141.8990427718926 C 0.0 **** -0.24
22737 H 11.353676586612579 112.39721493612542 141.22173592577798 H 0.0 **** 0.06
22738 H 10.025238013131542 113.54919115824482 141.4999969045614 H 0.0 **** 0.06
22739 H 11.68221943671898 113.96437921596852 141.99841414618814 H 0.0 **** 0.06
22740 H 10.777741464153479 112.70875312201149 142.87737663412514 H 0.0 **** 0.06
22741 C 22.262312097865347 57.842325705475446 36.211957160840655 C 0.0 **** -0.24
22742 H 22.743948431911647 56.96454185164964 35.78257762105781 H 0.0 **** 0.06
22743 H 22.84710465169458 58.73106021079087 35.974265018844676 H 0.0 **** 0.06
22744 H 22.198017466750223 57.728031543367905 37.29391184063729 H 0.0 **** 0.06
22745 H 21.258870696733744 57.94615034938704 35.79731905404515 H 0.0 **** 0.06
22746 C 43.04560344006906 62.65009945745376 122.95529605057996 C 0.0 **** -0.24
22747 H 43.39381820991346 63.67919928022508 122.86228012523438 H 0.0 **** 0.06
22748 H 43.698400326667695 61.991976596847365 122.38120855367944 H 0.0 **** 0.06
22749 H 42.02678590011797 62.575108483946934 122.57390764898841 H 0.0 **** 0.06
22750 H 43.06284013919469 62.35447392291658 124.00452689109383 H 0.0 **** 0.06
22751 C 101.51748324528666 87.74049313214331 96.58910229703591 C 0.0 **** -0.24
22752 H 101.85176397063935 88.4403885853477 97.35500676381466 H 0.0 **** 0.06
22753 H 101.04820120287312 88.28991996812819 95.77360406243122 H 0.0 **** 0.06
22754 H 100.79635991411436 87.04728036346822 97.02226058079441 H 0.0 **** 0.06
22755 H 102.37362019098157 87.18310886939558 96.20859970231612 H 0.0 **** 0.06
22756 C 101.29478406120049 98.61252044673121 97.02944568163795 C 0.0 **** -0.24
22757 H 101.39486801631651 97.57817342255305 97.35887298088774 H 0.0 **** 0.06
22758 H 101.18513701470701 99.2607632351379 97.8991995178281 H 0.0 **** 0.06
22759 H 100.4152936976362 98.70628679058554 96.3922961887833 H 0.0 **** 0.06
22760 H 102.18326788430178 98.90283707101915 96.46867509370233 H 0.0 **** 0.06
22761 C 8.1470480220651 42.85771472963137 35.30898441144842 C 0.0 **** -0.24
22762 H 9.106462817155087 42.847652695289014 35.825693110250256 H 0.0 **** 0.06
22763 H 7.532168535035261 42.033043655491724 35.670335708551335 H 0.0 **** 0.06
22764 H 8.310416937610022 42.74695057243929 34.23721541794123 H 0.0 **** 0.06
22765 H 7.640114031625384 43.80321076643611 35.50293566878068 H 0.0 **** 0.06
22766 C 67.45123516914882 90.58791209660231 1.2744819118381372 C 0.0 **** -0.24
22767 H 66.45913456568283 90.48205786790714 1.7124101411818913 H 0.0 **** 0.06
22768 H 67.93752442495486 91.47266391468494 1.6857371722856271 H 0.0 **** 0.06
22769 H 67.36163217051805 90.69121206129275 0.19317977639096284 H 0.0 **** 0.06
22770 H 68.0467847075258 89.70431152655854 1.5067161285246868 H 0.0 **** 0.06
22771 C 112.10634047694326 70.18614901139854 14.694934044849703 C 0.0 **** -0.24
22772 H 112.87498988266664 70.94540022228419 14.833989866591303 H 0.0 **** 0.06
22773 H 111.12393829455893 70.62663134574773 14.869502734997546 H 0.0 **** 0.06
22774 H 112.268913126544 69.3712938982541 15.400133419579731 H 0.0 **** 0.06
22775 H 112.15675214013011 69.80066470864007 13.676316138062326 H 0.0 **** 0.06
22776 C 110.41508312897905 49.57438260365467 125.30598069923 C 0.0 **** -0.24
22777 H 109.61840719918256 50.297806805016975 125.13048763355178 H 0.0 **** 0.06
22778 H 110.99571784045254 49.445768379046626 124.39265074874316 H 0.0 **** 0.06
22779 H 109.97994955941611 48.61869805723852 125.59889491361767 H 0.0 **** 0.06
22780 H 111.06510364752536 49.93666047134944 126.10272531896018 H 0.0 **** 0.06
22781 C 123.71224348422821 83.64302771799352 97.42439910858315 C 0.0 **** -0.24
22782 H 124.30345734194934 83.70833908709233 96.51128768451862 H 0.0 **** 0.06
22783 H 124.37936793267525 83.5663222621114 98.2837780701167 H 0.0 **** 0.06
22784 H 123.07191703315601 82.7632013245403 97.38076014930276 H 0.0 **** 0.06
22785 H 123.09609309412326 84.53659126544433 97.52155751101886 H 0.0 **** 0.06
22786 C 120.38406454769527 85.4094150577625 61.94441562225762 C 0.0 **** -0.24
22787 H 119.83996736887791 85.28173445248397 61.008335048373795 H 0.0 **** 0.06
22788 H 119.94493995229088 84.7680371094137 62.708844711819495 H 0.0 **** 0.06
22789 H 120.32159375295812 86.4493063440508 62.261925182709035 H 0.0 **** 0.06
22790 H 121.42909389790107 85.13569833710994 61.79705980294165 H 0.0 **** 0.06
22791 C 25.31082913935076 35.273175526408636 97.4029935115251 C 0.0 **** -0.24
22792 H 26.146749757519444 34.58772814602125 97.54557871938472 H 0.0 **** 0.06
22793 H 24.764624668339565 34.997310763026604 96.5006242793492 H 0.0 **** 0.06
22794 H 25.69011118078741 36.29096243677333 97.30287404610647 H 0.0 **** 0.06
22795 H 24.644719973915855 35.21743089978487 98.26324461303382 H 0.0 **** 0.06
22796 C 115.9840967709783 144.27018806333024 78.61828654599474 C 0.0 **** -0.24
22797 H 115.31028790325685 144.8792652648733 79.21984902402279 H 0.0 **** 0.06
22798 H 115.91777562641853 143.23051337508957 78.93907300181209 H 0.0 **** 0.06
22799 H 117.00626643915489 144.62567935879832 78.74609883102241 H 0.0 **** 0.06
22800 H 115.70205711508287 144.34529425455992 77.56812532712175 H 0.0 **** 0.06
22801 C 28.361232513543015 94.6628017115346 130.0233755812089 C 0.0 **** -0.24
22802 H 27.303077069615227 94.41347694273071 129.94288258320086 H 0.0 **** 0.06
22803 H 28.471324080355686 95.60773671517686 130.55508091886625 H 0.0 **** 0.06
22804 H 28.788375108251806 94.7550231528499 129.02451706723576 H 0.0 **** 0.06
22805 H 28.879526560874886 93.87487116513685 130.56926440031597 H 0.0 **** 0.06
22806 C 70.14208326731179 64.88627537642057 112.72821684495132 C 0.0 **** -0.24
22807 H 69.39073858513989 64.7109528322179 111.95731404067975 H 0.0 **** 0.06
22808 H 71.13688104187405 64.77037199046859 112.29840098208108 H 0.0 **** 0.06
22809 H 70.00861954448631 64.16553605253057 113.53502981179322 H 0.0 **** 0.06
22810 H 70.03092895199262 65.89692165458338 113.12074289949147 H 0.0 **** 0.06
22811 C 108.15591492336442 134.63809293726734 35.96763791870552 C 0.0 **** -0.24
22812 H 109.20284257948454 134.94058219271108 35.959599969454665 H 0.0 **** 0.06
22813 H 107.86873738183444 134.3523777288426 36.9791361825496 H 0.0 **** 0.06
22814 H 108.01934960078832 133.78916144715916 35.29664075150701 H 0.0 **** 0.06
22815 H 107.53505942049027 135.4689010634384 35.63385032837355 H 0.0 **** 0.06
22816 C 62.57044393712556 11.399942624223122 141.65220137286613 C 0.0 **** -0.24
22817 H 62.298071743847544 10.34526165643691 141.68990196594768 H 0.0 **** 0.06
22818 H 63.34627635003821 11.548067011414304 140.90069744619288 H 0.0 **** 0.06
22819 H 62.945387593925176 11.713143327495018 142.6266624940254 H 0.0 **** 0.06
22820 H 61.69377560323707 11.992505098044639 141.3927091844426 H 0.0 **** 0.06
22821 C 72.0893074403356 96.34266280725635 60.27300909037618 C 0.0 **** -0.24
22822 H 71.61889718142261 96.72082615865811 59.36604519315685 H 0.0 **** 0.06
22823 H 71.6220665804349 96.80220012139912 61.143598719388564 H 0.0 **** 0.06
22824 H 73.15157895116573 96.58468501568169 60.25892560188299 H 0.0 **** 0.06
22825 H 71.96498560553351 95.26062331451152 60.32158415374536 H 0.0 **** 0.06
22826 C 130.41968384051947 58.65915973910582 136.25910006827615 C 0.0 **** -0.24
22827 H 130.33154235557694 58.14440239206148 135.3016378451014 H 0.0 **** 0.06
22828 H 130.73907589230188 57.9517119560452 137.02406034731698 H 0.0 **** 0.06
22829 H 129.45272517197125 59.08122836309751 136.53382161661872 H 0.0 **** 0.06
22830 H 131.15458012325396 59.45972621636032 136.17325324938943 H 0.0 **** 0.06
22831 C 70.6901819924293 141.20296360107596 129.39706801513907 C 0.0 **** -0.24
22832 H 70.59188154082315 140.5361283920557 130.25374165595602 H 0.0 **** 0.06
22833 H 71.65631689659827 141.0408291120762 128.91867835087268 H 0.0 **** 0.06
22834 H 70.61877462155928 142.2375696993 129.73322887434225 H 0.0 **** 0.06
22835 H 69.89190352013867 140.9971869601178 128.68386933499195 H 0.0 **** 0.06
22836 C 20.85934510690859 6.216613649961488 72.61975499312283 C 0.0 **** -0.24
22837 H 20.826844802583963 7.195776989805779 72.1419927307951 H 0.0 **** 0.06
22838 H 21.7920586891575 6.115360989186058 73.17615075335792 H 0.0 **** 0.06
22839 H 20.80483040308667 5.439765638746337 71.8570071859393 H 0.0 **** 0.06
22840 H 20.015747523693094 6.117325711895717 73.30267073466578 H 0.0 **** 0.06
22841 C 42.77175397003816 136.97722878418224 60.25038200905493 C 0.0 **** -0.24
22842 H 42.354489880939155 136.84929710977468 61.249535196900624 H 0.0 **** 0.06
22843 H 42.351354904860415 137.8735830471607 59.79388383995676 H 0.0 **** 0.06
22844 H 42.524865954076134 136.10890377892383 59.63965876445991 H 0.0 **** 0.06
22845 H 43.85480093217481 137.07769269070428 60.31910001809469 H 0.0 **** 0.06
22846 C 80.64717598662655 98.7746930733851 27.855880166433266 C 0.0 **** -0.24
22847 H 80.49387980756673 98.19207358735771 26.94703048163157 H 0.0 **** 0.06
22848 H 79.93906312226602 99.60337441466557 27.87965680525882 H 0.0 **** 0.06
22849 H 81.66475224908194 99.16432167817683 27.87037049894556 H 0.0 **** 0.06
22850 H 80.49006751771658 98.13677599433211 28.72606730618901 H 0.0 **** 0.06
22851 C 143.39161884664907 86.13983849987491 141.59746048242053 C 0.0 **** -0.24
22852 H 142.8350829218677 87.0377953400554 141.86703459355394 H 0.0 **** 0.06
22853 H 144.4354109992291 86.39970774763268 141.41997011173058 H 0.0 **** 0.06
22854 H 142.96579117715675 85.70603498907491 140.69296383474588 H 0.0 **** 0.06
22855 H 143.32970926664902 85.41761740936298 142.41110768397456 H 0.0 **** 0.06
22856 C 136.56841284139475 65.4239612506459 34.10423564603126 C 0.0 **** -0.24
22857 H 137.18816796338015 65.92595504149381 33.36068486989516 H 0.0 **** 0.06
22858 H 135.82490533960708 66.12233177585875 34.48765848842036 H 0.0 **** 0.06
22859 H 137.19702784079576 65.07542860714153 34.923760558367135 H 0.0 **** 0.06
22860 H 136.0668775643829 64.5725301389578 33.64350866362005 H 0.0 **** 0.06
22861 C 13.002792697681173 56.51516151317526 128.16129600245893 C 0.0 **** -0.24
22862 H 12.88111698611516 57.37067572428859 128.82569524514898 H 0.0 **** 0.06
22863 H 12.098829612415301 55.90535124169352 128.18560928081467 H 0.0 **** 0.06
22864 H 13.854026236155647 55.91793862324934 128.48925211367722 H 0.0 **** 0.06
22865 H 13.176484687519775 56.867380620430424 127.14459462982128 H 0.0 **** 0.06
22866 C 55.90681507880342 121.23426735839297 143.65655318348954 C 0.0 **** -0.24
22867 H 55.1051210270285 120.57193653332723 143.32790674916484 H 0.0 **** 0.06
22868 H 56.820722365323036 120.65662506388833 143.7967450779153 H 0.0 **** 0.06
22869 H 55.624653154677816 121.70497991819241 144.59876137052558 H 0.0 **** 0.06
22870 H 56.07439937519179 122.00302792981398 142.90239963696453 H 0.0 **** 0.06
22871 C 144.0999057859402 62.39517862345079 68.21702691067603 C 0.0 **** -0.24
22872 H 143.09566748999185 62.62242234602644 67.85923278824757 H 0.0 **** 0.06
22873 H 144.6728675885392 61.925139013202056 67.41753241564095 H 0.0 **** 0.06
22874 H 144.03650425760677 61.71578455504053 69.06766542943316 H 0.0 **** 0.06
22875 H 144.59331368417034 63.316607099991415 68.5245753781081 H 0.0 **** 0.06
22876 C 137.90820258125936 92.56564703350136 101.95796613716392 C 0.0 **** -0.24
22877 H 138.69556331256044 91.9297698590164 102.36285896139407 H 0.0 **** 0.06
22878 H 137.33829801418267 93.00271874250171 102.77829474866651 H 0.0 **** 0.06
22879 H 137.24519776599107 91.96931112404826 101.33198135425476 H 0.0 **** 0.06
22880 H 138.35514579919223 93.360909970769 101.36138293472222 H 0.0 **** 0.06
22881 C 118.14347451666332 114.49925723642436 126.46598896443966 C 0.0 **** -0.24
22882 H 118.10345152705104 113.7847713055505 125.64407054318575 H 0.0 **** 0.06
22883 H 118.04989309975501 113.9695139049468 127.41367899359462 H 0.0 **** 0.06
22884 H 117.32609735766043 115.213617371676 126.36570392211348 H 0.0 **** 0.06
22885 H 119.09564952129448 115.03097127217647 126.43941968133316 H 0.0 **** 0.06
22886 C 48.99996919573343 119.96245392233429 130.85895712216868 C 0.0 **** -0.24
22887 H 48.16420414314754 119.28236687713759 130.69670037702957 H 0.0 **** 0.06
22888 H 49.376972584179526 120.31047074448709 129.89767381401347 H 0.0 **** 0.06
22889 H 49.79352231260296 119.44103809558617 131.39486374937718 H 0.0 **** 0.06
22890 H 48.66387842579198 120.81633499788903 131.44836704701336 H 0.0 **** 0.06
22891 C 122.47095933049428 18.477015376127547 83.73577803372545 C 0.0 **** -0.24
22892 H 123.01480353218011 18.305626033370515 84.66513539576957 H 0.0 **** 0.06
22893 H 121.73120935499162 19.263159678575967 83.88813623592029 H 0.0 **** 0.06
22894 H 121.96901512435954 17.557768654619906 83.43429774506221 H 0.0 **** 0.06
22895 H 123.16953719677204 18.7813958016551 82.95675018230519 H 0.0 **** 0.06
22896 C 61.24258264881996 41.052152722353924 135.70446335398415 C 0.0 **** -0.24
22897 H 62.30773982411249 40.867865333636814 135.84392030404595 H 0.0 **** 0.06
22898 H 60.96011387165696 40.79381468245924 134.68311531714176 H 0.0 **** 0.06
22899 H 61.02907369830304 42.10571273566853 135.88414672068905 H 0.0 **** 0.06
22900 H 60.67369750068693 40.4413363577566 136.4044575632212 H 0.0 **** 0.06
22901 C 17.975890825117006 42.88871574105181 99.90544972268506 C 0.0 **** -0.24
22902 H 18.117571162012894 43.47579899006607 100.81229744643255 H 0.0 **** 0.06
22903 H 18.36800962043202 41.88289020028117 100.05840318097779 H 0.0 **** 0.06
22904 H 18.50457872606887 43.36315597735492 99.0789913500499 H 0.0 **** 0.06
22905 H 16.912425492763077 42.832885551578585 99.67194727101025 H 0.0 **** 0.06
22906 C 85.54544413795253 89.54505469646747 11.703816464699088 C 0.0 **** -0.24
22907 H 86.10483622179453 89.52164215759211 12.639030475270324 H 0.0 **** 0.06
22908 H 86.23661352028415 89.66459795176398 10.869627528297073 H 0.0 **** 0.06
22909 H 84.84591377059144 90.38005562407227 11.719989186255823 H 0.0 **** 0.06
22910 H 84.9937696866802 88.61205244946069 11.587661338868493 H 0.0 **** 0.06
22911 C 95.68939923780549 111.76282697269099 28.575854933219034 C 0.0 **** -0.24
22912 H 95.89391055808076 110.69269069183142 28.617380643129223 H 0.0 **** 0.06
22913 H 96.07201374756721 112.16898284356776 27.63946802325509 H 0.0 **** 0.06
22914 H 96.17685755888087 112.25938476426089 29.41469498335792 H 0.0 **** 0.06
22915 H 94.61292810664511 111.92912852391956 28.63144861023828 H 0.0 **** 0.06
22916 C 61.078237066595705 66.42330476796847 49.57357247282786 C 0.0 **** -0.24
22917 H 61.78706936922454 66.59051417963568 48.76216400252373 H 0.0 **** 0.06
22918 H 60.29743462191789 67.18222193718908 49.53616764401417 H 0.0 **** 0.06
22919 H 61.59980949608847 66.4832421852405 50.528311998547295 H 0.0 **** 0.06
22920 H 60.630581198864675 65.43525927023967 49.46557606895274 H 0.0 **** 0.06
22921 C 126.68880045413346 131.000332407379 13.968915731824978 C 0.0 **** -0.24
22922 H 127.08777942376497 131.49647830705743 14.853750141232325 H 0.0 **** 0.06
22923 H 127.35437981623342 130.18738981142982 13.678004469977026 H 0.0 **** 0.06
22924 H 126.61465962697172 131.71883605865108 13.152702811973626 H 0.0 **** 0.06
22925 H 125.70088268033899 130.60015137794824 14.191856111788638 H 0.0 **** 0.06
22926 C 22.36374222660823 123.7100329903464 77.4019544867246 C 0.0 **** -0.24
22927 H 22.842119997098294 123.72084341824359 78.38113206225438 H 0.0 **** 0.06
22928 H 21.296970759202793 123.51966501666544 77.5211038971583 H 0.0 **** 0.06
22929 H 22.807456204355745 122.92523534881559 76.78922577871504 H 0.0 **** 0.06
22930 H 22.508786048137104 124.67572825280755 76.91779558460757 H 0.0 **** 0.06
22931 C 8.879149486353146 46.889836967076775 66.72765480779341 C 0.0 **** -0.24
22932 H 8.226805843908707 46.25664318442077 66.12707903254963 H 0.0 **** 0.06
22933 H 8.728839322888366 47.93338985962103 66.4499262730437 H 0.0 **** 0.06
22934 H 9.91848192477596 46.61265517837455 66.54947437982551 H 0.0 **** 0.06
22935 H 8.643695193442056 46.75780832665228 67.78371333443116 H 0.0 **** 0.06
22936 C 11.009103321898692 126.89353957871145 60.7685978346198 C 0.0 **** -0.24
22937 H 12.059661549207476 126.60640944784049 60.800292511319796 H 0.0 **** 0.06
22938 H 10.750055555766778 127.21448221761602 59.75895679236241 H 0.0 **** 0.06
22939 H 10.835957218939768 127.71324516794235 61.46713712982661 H 0.0 **** 0.06
22940 H 10.390719171705996 126.04137895928213 61.04947359041414 H 0.0 **** 0.06
22941 C 16.943228934514053 68.37347146515745 44.9851308873034 C 0.0 **** -0.24
22942 H 17.887240338517813 68.51072765335853 45.51286294205596 H 0.0 **** 0.06
22943 H 17.08822622681788 67.68056158075915 44.15670252896359 H 0.0 **** 0.06
22944 H 16.59924739090809 69.33330281706374 44.60068279029235 H 0.0 **** 0.06
22945 H 16.198791915012208 67.96850145794694 45.67201428089572 H 0.0 **** 0.06
22946 C 118.76820191161447 27.112335226580917 23.625058100214744 C 0.0 **** -0.24
22947 H 119.32063686358957 26.3307658034554 24.14655858202883 H 0.0 **** 0.06
22948 H 118.81120887158706 26.932937787987278 22.55115036569049 H 0.0 **** 0.06
22949 H 119.21248705052447 28.082821871338673 23.849582823787728 H 0.0 **** 0.06
22950 H 117.72961392916135 27.103399652759492 23.95447731327795 H 0.0 **** 0.06
22951 C 97.24633191002904 136.24252213722482 21.717632562038204 C 0.0 **** -0.24
22952 H 97.15740705671607 135.68743881021328 20.78337735067231 H 0.0 **** 0.06
22953 H 96.47572682518572 135.908599346294 22.41308515434602 H 0.0 **** 0.06
22954 H 97.12324043007682 137.3069239489732 21.520426784560442 H 0.0 **** 0.06
22955 H 98.22998587847385 136.06484219060198 22.152330852346466 H 0.0 **** 0.06
22956 C 126.61783514441666 73.86224147056826 118.2027775448123 C 0.0 **** -0.24
22957 H 125.6237032900647 73.57376854015803 118.54399758257699 H 0.0 **** 0.06
22958 H 127.16177617839635 72.97502004802453 117.8791432126335 H 0.0 **** 0.06
22959 H 127.15664915332565 74.34145859662227 119.02039684645712 H 0.0 **** 0.06
22960 H 126.52764248232633 74.5577334513081 117.36917450663816 H 0.0 **** 0.06
22961 C 120.78616999912147 113.1819299610014 52.56033162788424 C 0.0 **** -0.24
22962 H 120.73536173745832 112.82694214766519 51.53118243861053 H 0.0 **** 0.06
22963 H 119.99815867665261 112.70987332720637 53.14768298458216 H 0.0 **** 0.06
22964 H 120.65439913612336 114.26393321521266 52.57814475468609 H 0.0 **** 0.06
22965 H 121.75846561299461 112.92871066953558 52.984574701416705 H 0.0 **** 0.06
22966 C 93.75333572427749 123.21204211339648 138.91115210856128 C 0.0 **** -0.24
22967 H 94.44076956600617 123.76733978799157 139.54985558865292 H 0.0 **** 0.06
22968 H 94.12938799236491 122.19852925014311 138.76638219200697 H 0.0 **** 0.06
22969 H 93.67158517688051 123.71141578277181 137.9458979097269 H 0.0 **** 0.06
22970 H 92.77232520797986 123.17195284942096 139.38362652664853 H 0.0 **** 0.06
22971 C 142.36829587777044 75.62834374751094 92.31600072377793 C 0.0 **** -0.24
22972 H 143.24446565776586 76.02129549557765 92.83054351261742 H 0.0 **** 0.06
22973 H 142.15502472754815 76.24168263103928 91.44060382984811 H 0.0 **** 0.06
22974 H 141.512514871407 75.64685438617909 92.99158577855002 H 0.0 **** 0.06
22975 H 142.5605050594774 74.60193931646398 92.00299515702261 H 0.0 **** 0.06
22976 C 100.15921212634876 62.457346587111886 42.135310633014996 C 0.0 **** -0.24
22977 H 101.21037249889075 62.62857576217732 42.3671669104958 H 0.0 **** 0.06
22978 H 99.93106378242729 62.873723483708886 41.15347532747211 H 0.0 **** 0.06
22979 H 99.53822409694594 62.94126951434944 42.889010410211256 H 0.0 **** 0.06
22980 H 99.95788529258184 61.38644703310605 42.13124665925895 H 0.0 **** 0.06
22981 C 107.12293335098893 120.31471345478306 34.20030524731686 C 0.0 **** -0.24
22982 H 106.7864429137337 119.29903109538665 33.98881177034717 H 0.0 **** 0.06
22983 H 108.0947180779762 120.47960396702788 33.73480931195188 H 0.0 **** 0.06
22984 H 107.20857268639908 120.45011944971517 35.27898595357361 H 0.0 **** 0.06
22985 H 106.40137246214194 121.02750773834507 33.80058646261932 H 0.0 **** 0.06
22986 C 12.938116150335205 49.42612151871697 32.741889505173155 C 0.0 **** -0.24
22987 H 12.817254875042423 48.39431345907269 33.071133421258445 H 0.0 **** 0.06
22988 H 12.741606333788845 50.09910635905425 33.576427214125985 H 0.0 **** 0.06
22989 H 12.236020136835016 49.63402335255171 31.933031042454388 H 0.0 **** 0.06
22990 H 13.957602536244025 49.57679694600273 32.385251914705485 H 0.0 **** 0.06
22991 C 96.87613692582475 45.86516375062516 5.455219277287284 C 0.0 **** -0.24
22992 H 97.17865145267218 45.15200081911006 6.22122478459562 H 0.0 **** 0.06
22993 H 96.27648322826191 46.654402241824215 5.9095088067361985 H 0.0 **** 0.06
22994 H 96.28791360072785 45.35299032982158 4.694159109671148 H 0.0 **** 0.06
22995 H 97.76380128467555 46.30172183612754 4.995284492321417 H 0.0 **** 0.06
22996 C 71.88035534368379 145.05422054612077 15.992714143159333 C 0.0 **** -0.24
22997 H 71.252070017704 144.63789122844423 16.779488126222304 H 0.0 **** 0.06
22998 H 71.38402480497365 145.91776423004762 15.550413136658904 H 0.0 **** 0.06
22999 H 72.04941087294756 144.29868351308835 15.22510946668774 H 0.0 **** 0.06
23000 H 72.83675501909457 145.36128687207542 16.416692747526895 H 0.0 **** 0.06
23001 C 26.599560252025427 33.05413989725768 115.4014183251086 C 0.0 **** -0.24
23002 H 27.430793714296797 33.50826973871339 114.86050521973537 H 0.0 **** 0.06
23003 H 25.65735554909034 33.40787094911391 114.98138786252561 H 0.0 **** 0.06
23004 H 26.657062735959748 33.3319184352171 116.45362573005066 H 0.0 **** 0.06
23005 H 26.654651948214635 31.969401733716573 115.3075943668742 H 0.0 **** 0.06
23006 C 143.1825620579998 136.19169865408603 121.48628727076617 C 0.0 **** -0.24
23007 H 143.70280161103227 136.88164976330845 122.15064724001313 H 0.0 **** 0.06
23008 H 142.26484743717126 136.65579843258436 121.12649132802018 H 0.0 **** 0.06
23009 H 142.94019827653116 135.27829567825262 122.03000661256699 H 0.0 **** 0.06
23010 H 143.8248048458345 135.9501163844227 120.63953636715713 H 0.0 **** 0.06
23011 C 96.33790540807433 86.01871066883973 108.07065257822043 C 0.0 **** -0.24
23012 H 97.10221944793733 86.73173023031336 108.38032670685843 H 0.0 **** 0.06
23013 H 96.44161377147228 85.81545359004355 107.00431300874911 H 0.0 **** 0.06
23014 H 95.35052091935029 86.43565259350407 108.26750067645546 H 0.0 **** 0.06
23015 H 96.45937996380479 85.09127777004306 108.63055351495544 H 0.0 **** 0.06
23016 C 7.652868258321465 134.1473431377565 73.78570694618853 C 0.0 **** -0.24
23017 H 6.632892922061124 133.99491278774704 74.13934125137999 H 0.0 **** 0.06
23018 H 7.79921515773902 133.60092390256384 72.85420252701712 H 0.0 **** 0.06
23019 H 8.354826995851347 133.78279424535683 74.53528076249583 H 0.0 **** 0.06
23020 H 7.822587483329766 135.21043187069992 73.61545237129715 H 0.0 **** 0.06
23021 C 141.70794759762197 85.62067220012543 89.42274834702255 C 0.0 **** -0.24
23022 H 142.3642061983429 84.75063578416177 89.4554776433798 H 0.0 **** 0.06
23023 H 142.1321335209709 86.37123767158045 88.75543530716058 H 0.0 **** 0.06
23024 H 141.60787672104897 86.03807872989874 90.42451004045213 H 0.0 **** 0.06
23025 H 140.725759636196 85.32086689983981 89.05446913411186 H 0.0 **** 0.06
23026 C 61.736561098656054 135.345318701259 124.18625484630601 C 0.0 **** -0.24
23027 H 61.40728021962332 135.78862411143635 125.12579265493855 H 0.0 **** 0.06
23028 H 62.68308271828916 134.82617842517783 124.34136820317346 H 0.0 **** 0.06
23029 H 61.86950111407792 136.13045182203984 123.44158186097877 H 0.0 **** 0.06
23030 H 60.986380342634234 134.6360204463822 123.8362766661331 H 0.0 **** 0.06
23031 C 126.55623246974129 104.96297466768917 66.56498551682324 C 0.0 **** -0.24
23032 H 127.29807530617441 105.56755437284242 67.08677425083931 H 0.0 **** 0.06
23033 H 126.03841830440189 104.3247993715996 67.28029078911283 H 0.0 **** 0.06
23034 H 127.05347212059841 104.34297098705734 65.81851040278701 H 0.0 **** 0.06
23035 H 125.83658194515274 105.61629812550505 66.07185524015341 H 0.0 **** 0.06
23036 C 42.214983962358204 9.0528304942504 138.00816698476677 C 0.0 **** -0.24
23037 H 42.59357323528104 9.685907667633757 138.80956343782364 H 0.0 **** 0.06
23038 H 41.27116106867366 9.45546542084594 137.64196989268314 H 0.0 **** 0.06
23039 H 42.0565527893734 8.042107322418786 138.38724379549274 H 0.0 **** 0.06
23040 H 42.9401250669803 9.024927726552534 137.1944657267775 H 0.0 **** 0.06
23041 C 44.43764021224649 58.769470677977665 108.4228728417762 C 0.0 **** -0.24
23042 H 45.47752838796086 58.444087907985164 108.40352057638866 H 0.0 **** 0.06
23043 H 44.36129792386018 59.76531369650644 107.98559322649238 H 0.0 **** 0.06
23044 H 44.08601109429517 58.79753287624797 109.45393168932658 H 0.0 **** 0.06
23045 H 43.827140401795134 58.072047175420636 107.8497818267485 H 0.0 **** 0.06
23046 C 51.2714430946307 54.602822518465416 111.71450181224814 C 0.0 **** -0.24
23047 H 50.7970428199791 55.13059302985948 112.54154687827061 H 0.0 **** 0.06
23048 H 51.81785859546213 53.74147109964497 112.09876049112309 H 0.0 **** 0.06
23049 H 51.96293954404125 55.27463633253291 111.20580567155757 H 0.0 **** 0.06
23050 H 50.50860865950095 54.266927556269025 111.01216920481279 H 0.0 **** 0.06
23051 C 89.23573112004416 15.936716931837964 110.8942253492449 C 0.0 **** -0.24
23052 H 90.24453730718213 15.528026831577733 110.83684616202292 H 0.0 **** 0.06
23053 H 88.51664690593879 15.119572714227843 110.96662840238038 H 0.0 **** 0.06
23054 H 89.03082677297428 16.52260545688881 109.99865027902554 H 0.0 **** 0.06
23055 H 89.1521748120472 16.574518134817822 111.77343113136256 H 0.0 **** 0.06
23056 C 113.76006591288868 110.8388107554559 122.69929631074042 C 0.0 **** -0.24
23057 H 112.78215527087738 111.15901544379828 122.34101486959487 H 0.0 **** 0.06
23058 H 114.10999927839455 111.52930560197855 123.4675706519207 H 0.0 **** 0.06
23059 H 114.46640092554023 110.83063673969495 121.86879949681641 H 0.0 **** 0.06
23060 H 113.68268551699944 109.83645337945192 123.11992897866446 H 0.0 **** 0.06
23061 C 97.21839973192148 5.95704399908783 88.75135280633998 C 0.0 **** -0.24
23062 H 97.42623082728726 5.504578036016511 87.78212907053734 H 0.0 **** 0.06
23063 H 96.21976474143668 5.667611779983218 89.08038942346309 H 0.0 **** 0.06
23064 H 97.27262181522306 7.042461247898359 88.66527566313363 H 0.0 **** 0.06
23065 H 97.95425292048728 5.612465575266128 89.47820609952493 H 0.0 **** 0.06
23066 C 75.42652897748398 37.22601234944267 135.33984401727363 C 0.0 **** -0.24
23067 H 74.99978115716911 37.44589028876155 136.31788176639662 H 0.0 **** 0.06
23068 H 75.91348176471776 38.1179960709606 134.9465567294893 H 0.0 **** 0.06
23069 H 74.63388976519752 36.91485257455227 134.6592269587854 H 0.0 **** 0.06
23070 H 76.15782203479873 36.423730654529464 135.43526109447453 H 0.0 **** 0.06
23071 C 61.862222009174786 87.65787826637668 113.83647190916518 C 0.0 **** -0.24
23072 H 62.49976943004299 86.92266173692761 114.32803966773672 H 0.0 **** 0.06
23073 H 62.2084132393135 87.81315792733741 112.81425383561516 H 0.0 **** 0.06
23074 H 61.905277729964695 88.60004200019901 114.38305365755171 H 0.0 **** 0.06
23075 H 60.834349972317284 87.2934529553772 113.82046473432094 H 0.0 **** 0.06
23076 C 91.93312434022474 137.90717665404895 36.25565309125533 C 0.0 **** -0.24
23077 H 92.76011703887784 138.1529711105673 35.58959975129171 H 0.0 **** 0.06
23078 H 92.32277015125308 137.67677217515802 37.247902996377874 H 0.0 **** 0.06
23079 H 91.39651856834459 137.04324929366754 35.8658985839282 H 0.0 **** 0.06
23080 H 91.25431586111534 138.75814725430217 36.320468426120954 H 0.0 **** 0.06
23081 C 29.284294195526712 133.77750352227758 109.98141670058571 C 0.0 **** -0.24
23082 H 29.73110558014025 134.73781093987012 110.2398739887541 H 0.0 **** 0.06
23083 H 29.083352691021872 133.74674494893975 108.91067242397857 H 0.0 **** 0.06
23084 H 28.350263221957107 133.65257415079031 110.53066414800541 H 0.0 **** 0.06
23085 H 29.97115920192823 132.97435081516844 110.24672981807724 H 0.0 **** 0.06
23086 C 57.437354430019255 121.01094989229313 14.72379466480325 C 0.0 **** -0.24
23087 H 57.20939746468176 121.27446570010909 15.756923875587347 H 0.0 **** 0.06
23088 H 56.53588921343811 120.63965041676687 14.236363583792723 H 0.0 **** 0.06
23089 H 58.2044209506426 120.23743683450004 14.708035573179757 H 0.0 **** 0.06
23090 H 57.799065317955794 121.89236645599794 14.195108620462094 H 0.0 **** 0.06
23091 C 62.55769052901786 53.758047885119566 97.25538433395312 C 0.0 **** -0.24
23092 H 62.663453565394406 52.91852807946756 96.56809648812059 H 0.0 **** 0.06
23093 H 61.58894330387825 53.69934072456297 97.75248816618969 H 0.0 **** 0.06
23094 H 62.62618213812138 54.693609134475054 96.69974958833565 H 0.0 **** 0.06
23095 H 63.35169548596937 53.71905681994596 98.00107107628469 H 0.0 **** 0.06
23096 C 42.82142129954673 20.99630829005892 46.03664238306193 C 0.0 **** -0.24
23097 H 42.48655504918986 20.704572203970116 45.04186577944162 H 0.0 **** 0.06
23098 H 42.006138748360456 20.863988710579292 46.748085843696046 H 0.0 **** 0.06
23099 H 43.12699341445642 22.042921161034002 46.024268487318594 H 0.0 **** 0.06
23100 H 43.66689498381601 20.374008562580258 46.33199005562777 H 0.0 **** 0.06
23101 C 45.16854600084332 21.52680685186793 54.042392067608404 C 0.0 **** -0.24
23102 H 45.10275793186224 22.295426755732336 53.272493854419395 H 0.0 **** 0.06
23103 H 44.82771019334723 21.93630503297905 54.99381738290933 H 0.0 **** 0.06
23104 H 46.20253866423059 21.196863559472206 54.138331909261126 H 0.0 **** 0.06
23105 H 44.54110876934146 20.680043451649595 53.76486703507791 H 0.0 **** 0.06
23106 C 106.5481052037207 131.934269793834 95.20917961819566 C 0.0 **** -0.24
23107 H 105.57043511043832 131.96169167655734 94.72613178916802 H 0.0 **** 0.06
23108 H 106.91738954046667 130.90848400605856 95.22148901842803 H 0.0 **** 0.06
23109 H 106.45705019962895 132.2999239916231 96.23163101540295 H 0.0 **** 0.06
23110 H 107.24351759244831 132.5662715911902 94.6579880191231 H 0.0 **** 0.06
23111 C 10.301922325169414 11.569546068624476 137.76341330696803 C 0.0 **** -0.24
23112 H 10.356510451523661 10.481070694281811 137.77849267191286 H 0.0 **** 0.06
23113 H 10.403102725543505 11.924228819120202 136.73716937005108 H 0.0 **** 0.06
23114 H 11.106167771153451 11.982611799773593 138.3723450489936 H 0.0 **** 0.06
23115 H 9.34093216035788 11.890715620185631 138.16472353760795 H 0.0 **** 0.06
23116 C 101.85100526653181 68.98398358416122 40.76836828411052 C 0.0 **** -0.24
23117 H 100.89328493894385 69.44699386561457 40.529874748410606 H 0.0 **** 0.06
23118 H 101.85339255220741 67.95241584164962 40.41879695687507 H 0.0 **** 0.06
23119 H 102.00549326474719 69.00274759328157 41.8476552290189 H 0.0 **** 0.06
23120 H 102.65329468867974 69.53616581301713 40.277602124478506 H 0.0 **** 0.06
23121 C 61.94487230966061 28.534079865931545 12.17856299455758 C 0.0 **** -0.24
23122 H 63.02582948797311 28.633992365937097 12.079149828751838 H 0.0 **** 0.06
23123 H 61.688973983773224 28.39385554197164 13.2291980979968 H 0.0 **** 0.06
23124 H 61.60515321593083 27.673293035094567 11.602765411152063 H 0.0 **** 0.06
23125 H 61.46118677410308 29.43635779857769 11.804073021386671 H 0.0 **** 0.06
23126 C 52.33491038691503 79.67813127367293 117.79646678795149 C 0.0 **** -0.24
23127 H 52.53687296575549 78.65643402026505 118.11768590928494 H 0.0 **** 0.06
23128 H 53.066234528407534 80.35096718749777 118.24520475691804 H 0.0 **** 0.06
23129 H 51.33273776287834 79.96771694633001 118.11212333417649 H 0.0 **** 0.06
23130 H 52.40618157751956 79.7371227906427 116.71037364407988 H 0.0 **** 0.06
23131 C 57.97264643586199 108.05233541654115 134.84607416839592 C 0.0 **** -0.24
23132 H 57.6659886112066 107.20541845940494 134.23177410523854 H 0.0 **** 0.06
23133 H 59.03516602687685 108.24491805639241 134.69454535583364 H 0.0 **** 0.06
23134 H 57.79085646333971 107.82352384599449 135.89605776696135 H 0.0 **** 0.06
23135 H 57.39875506262982 108.93441112354026 134.56101266621937 H 0.0 **** 0.06
23136 C 33.18853347610806 75.06891320396342 109.7172506402628 C 0.0 **** -0.24
23137 H 32.6662880515525 74.35843757333653 109.07758359441705 H 0.0 **** 0.06
23138 H 33.43725922739563 75.960404898662 109.14207681721292 H 0.0 **** 0.06
23139 H 34.103890934758226 74.61327376960129 110.09501555277684 H 0.0 **** 0.06
23140 H 32.54730788090404 75.34422645512986 110.55471303065461 H 0.0 **** 0.06
23141 C 16.837893831013602 129.59312306540673 18.91151270659583 C 0.0 **** -0.24
23142 H 16.11532290074662 130.17700422706204 19.4829591175843 H 0.0 **** 0.06
23143 H 17.840195964623348 129.98384009024247 19.086748349112554 H 0.0 **** 0.06
23144 H 16.59986491445435 129.6615305201814 17.84983687636526 H 0.0 **** 0.06
23145 H 16.79357920588862 128.55150597696294 19.228005846503663 H 0.0 **** 0.06
23146 C 34.060369878228286 2.896707260139067 57.979599611312125 C 0.0 **** -0.24
23147 H 33.97321004494893 1.9405552920409264 58.495839365298906 H 0.0 **** 0.06
23148 H 34.97481369161707 2.906398821131745 57.385976407681454 H 0.0 **** 0.06
23149 H 34.09321228229862 3.7031007167310577 58.71272981654218 H 0.0 **** 0.06
23150 H 33.200752390107056 3.036216780673385 57.32504884234149 H 0.0 **** 0.06
23151 C 138.59107424845797 76.17744418987365 40.388335327644 C 0.0 **** -0.24
23152 H 138.81924876129528 76.1652567398574 41.45451954797389 H 0.0 **** 0.06
23153 H 139.50964103705974 76.33604924817274 39.82259649641496 H 0.0 **** 0.06
23154 H 137.88856031809314 76.98245566367223 40.17623267888371 H 0.0 **** 0.06
23155 H 138.14826810600948 75.22308123747132 40.10270796948846 H 0.0 **** 0.06
23156 C 64.96857011562332 99.1309670408291 101.94633956637477 C 0.0 **** -0.24
23157 H 65.57567014637155 99.13244740293078 102.85117171782693 H 0.0 **** 0.06
23158 H 64.23684781995249 99.9381363354134 101.99882935478291 H 0.0 **** 0.06
23159 H 64.45119658012703 98.17573400224757 101.85747809805133 H 0.0 **** 0.06
23160 H 65.61010375468327 99.27836349290057 101.07823316749926 H 0.0 **** 0.06
23161 C 48.62114405967199 96.43503867125918 78.9703773586326 C 0.0 **** -0.24
23162 H 48.101292596407646 95.47803937000978 79.0222205801166 H 0.0 **** 0.06
23163 H 48.681335152454295 96.76011087045387 77.93099337755957 H 0.0 **** 0.06
23164 H 49.62670060901934 96.32480748502897 79.3753785610194 H 0.0 **** 0.06
23165 H 48.07357991953991 97.17680534095683 79.55317122104783 H 0.0 **** 0.06
23166 C 62.31128030467255 106.75052676005221 8.839780884702918 C 0.0 **** -0.24
23167 H 61.290982332266964 106.41754508709825 9.030498362140236 H 0.0 **** 0.06
23168 H 62.33989036838162 107.8398294260637 8.819905044487768 H 0.0 **** 0.06
23169 H 62.64780331995334 106.35987029045587 7.879375925691704 H 0.0 **** 0.06
23170 H 62.9656339645874 106.38423308237144 9.631330731997934 H 0.0 **** 0.06
23171 C 88.39107200258994 107.27284223508893 81.44933848140076 C 0.0 **** -0.24
23172 H 88.14015284868296 106.50778917878627 80.71434030959804 H 0.0 **** 0.06
23173 H 87.99481034228478 108.23444382882643 81.12295224785964 H 0.0 **** 0.06
23174 H 89.47489132411718 107.34098193995244 81.54734659706398 H 0.0 **** 0.06
23175 H 87.9550472926833 107.00855586751506 82.41203521745592 H 0.0 **** 0.06
23176 C 143.523334197041 124.01804127185042 107.30871705120803 C 0.0 **** -0.24
23177 H 143.954222577229 123.6110077522246 106.39485669898839 H 0.0 **** 0.06
23178 H 142.60525247164603 124.55494933700467 107.06941894248435 H 0.0 **** 0.06
23179 H 144.2347182092382 124.7026538019679 107.77260976323753 H 0.0 **** 0.06
23180 H 143.29966446566365 123.20456833647174 107.99881959936288 H 0.0 **** 0.06
23181 C 58.028709659109325 0.6280476393454819 2.3176337045272817 C 0.0 **** -0.24
23182 H 58.261615718112864 -0.4293901036925263 2.439719943476746 H 0.0 **** 0.06
23183 H 58.95151677563291 1.1898355996690668 2.172712301058425 H 0.0 **** 0.06
23184 H 57.517695049533586 0.9917991599644154 3.209411044090814 H 0.0 **** 0.06
23185 H 57.382996561804305 0.7600856695360108 1.449666864489643 H 0.0 **** 0.06
23186 C 28.283342668887883 63.6491059519207 37.954547599299474 C 0.0 **** -0.24
23187 H 29.114676368469418 63.225829821893754 38.51636109012435 H 0.0 **** 0.06
23188 H 28.47736173696984 63.54819156101172 36.88614045004428 H 0.0 **** 0.06
23189 H 28.17483114322482 64.70418295444324 38.20602059640635 H 0.0 **** 0.06
23190 H 27.36514463152207 63.118491635990225 38.20937650806283 H 0.0 **** 0.06
23191 C 39.756871447265425 44.162554880278066 116.94943428780063 C 0.0 **** -0.24
23192 H 39.61625123379483 45.02038328739452 116.29113928177144 H 0.0 **** 0.06
23193 H 40.68906951704328 43.6581203491872 116.6942373451787 H 0.0 **** 0.06
23194 H 38.9230286786312 43.47144022371015 116.82748080426147 H 0.0 **** 0.06
23195 H 39.79863332497743 44.50244951950393 117.9847330468517 H 0.0 **** 0.06
23196 C 51.91555181681724 25.52476255610884 81.60669759413358 C 0.0 **** -0.24
23197 H 51.6887174792477 24.609363102181476 81.061083375201 H 0.0 **** 0.06
23198 H 52.79138559428469 26.002081903907623 81.16648587551653 H 0.0 **** 0.06
23199 H 52.11812100778839 25.285291451939344 82.65094528578331 H 0.0 **** 0.06
23200 H 51.06398318594809 26.20231376640683 81.54827584003334 H 0.0 **** 0.06
23201 C 97.87814387820183 108.05863887420465 54.16012417707482 C 0.0 **** -0.24
23202 H 98.21864210108032 108.52258360914051 53.23454158748385 H 0.0 **** 0.06
23203 H 96.8781405296977 108.42018337001677 54.40121297687247 H 0.0 **** 0.06
23204 H 98.56210659721663 108.3157233224578 54.96854513983989 H 0.0 **** 0.06
23205 H 97.8536862848128 106.9760651952037 54.0361970041032 H 0.0 **** 0.06
23206 C 132.83246974603836 144.4427415693883 140.51996700850876 C 0.0 **** -0.24
23207 H 133.55297513442275 145.2606309228648 140.5349968355332 H 0.0 **** 0.06
23208 H 133.00478165731823 143.79004426171596 141.3758108782285 H 0.0 **** 0.06
23209 H 132.94959970818928 143.87260660231465 139.59828398536047 H 0.0 **** 0.06
23210 H 131.82167496596875 144.8478254765799 140.57026459331757 H 0.0 **** 0.06
23211 C 50.360432683371215 43.07347078163795 38.01849030397892 C 0.0 **** -0.24
23212 H 49.308926679498626 43.35172129800084 38.097158732799414 H 0.0 **** 0.06
23213 H 50.962931586801545 43.97148339444688 37.879381193019526 H 0.0 **** 0.06
23214 H 50.497045801844735 42.408506133977525 37.166165990993875 H 0.0 **** 0.06
23215 H 50.67092684420891 42.56466088963555 38.930810283658104 H 0.0 **** 0.06
23216 C 121.33615258964687 10.069052465662452 73.61314525253309 C 0.0 **** -0.24
23217 H 122.0516435414653 10.89071736997397 73.61957453017885 H 0.0 **** 0.06
23218 H 121.48592570266374 9.449095586935528 74.49740958278169 H 0.0 **** 0.06
23219 H 121.4846707426143 9.466063318241424 72.71636856928573 H 0.0 **** 0.06
23220 H 120.32210896608706 10.46925472261458 73.61789872319429 H 0.0 **** 0.06
23221 C 68.32064916102281 90.78293558827072 38.78747230785606 C 0.0 **** -0.24
23222 H 68.58164401902884 90.26951128734076 39.713512867933275 H 0.0 **** 0.06
23223 H 68.09488293271046 91.82720361152491 39.003070998674644 H 0.0 **** 0.06
23224 H 67.44710639046114 90.30632182050876 38.34318273988421 H 0.0 **** 0.06
23225 H 69.15842840626205 90.7275055001382 38.09281965278103 H 0.0 **** 0.06
23226 C 112.00278081048846 134.16377276945084 113.50342795448759 C 0.0 **** -0.24
23227 H 112.64206473915128 134.46037500810104 114.33468726853877 H 0.0 **** 0.06
23228 H 112.39081566541448 134.58991420003971 112.5776804857812 H 0.0 **** 0.06
23229 H 110.99100622574024 134.52946955214776 113.6755613426499 H 0.0 **** 0.06
23230 H 111.98874656231045 133.07725967997254 113.42585745414172 H 0.0 **** 0.06
23231 C 3.85136630247041 80.41486339358146 69.33052178927937 C 0.0 **** -0.24
23232 H 3.6060749122440257 79.8730308686915 70.24348811307614 H 0.0 **** 0.06
23233 H 4.853839380526097 80.83540613713816 69.41619250019747 H 0.0 **** 0.06
23234 H 3.1309166067836145 81.21958186034888 69.18038395963582 H 0.0 **** 0.06
23235 H 3.814634310327733 79.73143470814739 68.482022584208 H 0.0 **** 0.06
23236 C 127.20932572762266 120.27190006954537 96.2177338897201 C 0.0 **** -0.24
23237 H 126.26073364107447 119.95877357835464 95.78051793515765 H 0.0 **** 0.06
23238 H 127.02066107547151 120.80508655271824 97.14969726575535 H 0.0 **** 0.06
23239 H 127.7302854600987 120.92842391820001 95.52085851508889 H 0.0 **** 0.06
23240 H 127.8231707679079 119.39441280823958 96.41877923325856 H 0.0 **** 0.06
23241 C 15.645452478991388 143.63195121307774 100.90592488035048 C 0.0 **** -0.24
23242 H 14.97626175447055 143.25934838960868 101.6810092474459 H 0.0 **** 0.06
23243 H 15.20690883863874 143.44136830117216 99.92518861114371 H 0.0 **** 0.06
23244 H 16.606418199636096 143.12329446482906 100.97993888930762 H 0.0 **** 0.06
23245 H 15.790406905131476 144.7049108468897 101.03635411711258 H 0.0 **** 0.06
23246 C 55.770919143365944 76.11112084204399 112.62447907221319 C 0.0 **** -0.24
23247 H 55.51421835131936 76.78807355455945 111.8088359621657 H 0.0 **** 0.06
23248 H 56.17525815014389 75.18591327009995 112.21409290688429 H 0.0 **** 0.06
23249 H 54.87679596771994 75.89074801297363 113.20736194639271 H 0.0 **** 0.06
23250 H 56.516452684492066 76.58139037617389 113.26607647198902 H 0.0 **** 0.06
23251 C 58.186065534359074 16.579279183313133 107.29439858592302 C 0.0 **** -0.24
23252 H 58.56105381315338 15.607713093204296 107.61720665359026 H 0.0 **** 0.06
23253 H 58.78890491745412 16.943405185638966 106.46264572807995 H 0.0 **** 0.06
23254 H 58.24438788169883 17.284337463900016 108.12329435635915 H 0.0 **** 0.06
23255 H 57.14808916739848 16.479283510667443 106.97433624958198 H 0.0 **** 0.06
23256 C 90.56642012216261 136.3076392681016 70.28936162704271 C 0.0 **** -0.24
23257 H 90.7724266463716 136.4754991008859 69.2318748330257 H 0.0 **** 0.06
23258 H 91.48758631808539 136.0191865384521 70.79702176773814 H 0.0 **** 0.06
23259 H 89.82931581956288 135.51161673080142 70.39347335079191 H 0.0 **** 0.06
23260 H 90.17791422292711 137.22375725442296 70.73355626038597 H 0.0 **** 0.06
23261 C 60.608620673845635 110.92332008566028 84.31332271534978 C 0.0 **** -0.24
23262 H 61.18019019802642 111.14096842138936 83.41031472101035 H 0.0 **** 0.06
23263 H 60.69137650223932 109.8624593884988 84.54890695964461 H 0.0 **** 0.06
23264 H 59.56224837253524 111.17927011781792 84.15041036469701 H 0.0 **** 0.06
23265 H 61.001938602168536 111.51177854205618 85.14226092148384 H 0.0 **** 0.06
23266 C 29.868714576421723 133.0036051841792 6.814215435322243 C 0.0 **** -0.24
23267 H 30.13020890816398 134.00658660711372 7.152802078585729 H 0.0 **** 0.06
23268 H 29.08439962979702 132.59697431583837 7.453814811996736 H 0.0 **** 0.06
23269 H 30.749414901267926 132.36263297499647 6.864240425800773 H 0.0 **** 0.06
23270 H 29.51104201508042 133.05039366527657 5.785492398793416 H 0.0 **** 0.06
23271 C 110.87970761775381 126.2787127477025 102.7395509444473 C 0.0 **** -0.24
23272 H 110.47324391269126 127.19912839731526 102.32069634871212 H 0.0 **** 0.06
23273 H 111.08749595325764 126.42296128638299 103.80045967033655 H 0.0 **** 0.06
23274 H 111.80330969685906 126.020323078021 102.2205442765667 H 0.0 **** 0.06
23275 H 110.15672704514276 125.47276483750281 102.61617782483668 H 0.0 **** 0.06
23276 C 14.403807091408453 75.27598662065024 24.4342896649552 C 0.0 **** -0.24
23277 H 13.833963523412535 75.24957048457028 25.3633819183528 H 0.0 **** 0.06
23278 H 14.04677161785014 76.0971860163585 23.81256373504835 H 0.0 **** 0.06
23279 H 14.274011029473115 74.33293812629283 23.9027424483957 H 0.0 **** 0.06
23280 H 15.459596279728316 75.42318726699078 24.660490970845153 H 0.0 **** 0.06
23281 C 34.22262547619954 9.368333681218985 105.65194951882114 C 0.0 **** -0.24
23282 H 34.89742707982944 8.614960203392428 105.24608122041036 H 0.0 **** 0.06
23283 H 33.89556668291536 9.063425424916176 106.64659540949287 H 0.0 **** 0.06
23284 H 33.35596860783156 9.469313241045313 104.9989557366901 H 0.0 **** 0.06
23285 H 34.74183752512292 10.324800790158832 105.71726750478217 H 0.0 **** 0.06
23286 C 139.08817680155397 116.12572546213606 66.51388362597058 C 0.0 **** -0.24
23287 H 139.11344522439367 115.83390821600575 65.46400120600319 H 0.0 **** 0.06
23288 H 138.69945785035998 115.30071049687946 67.11097389367224 H 0.0 **** 0.06
23289 H 138.44425190118835 116.99674250549471 66.63331940892989 H 0.0 **** 0.06
23290 H 140.09748068365212 116.37028154640227 66.8464057065139 H 0.0 **** 0.06
23291 C 134.7611631211798 102.73087728140644 44.29789009928979 C 0.0 **** -0.24
23292 H 134.51898232324672 102.55900986787452 43.249412191458504 H 0.0 **** 0.06
23293 H 135.84425447449738 102.72362360918024 44.42532815026783 H 0.0 **** 0.06
23294 H 134.31794824814207 101.94397553210297 44.906883564661484 H 0.0 **** 0.06
23295 H 134.36465257634077 103.69743998311478 44.6081187417507 H 0.0 **** 0.06
23296 C 36.03742684896778 43.730693884588135 57.028848037171784 C 0.0 **** -0.24
23297 H 36.178498091634 44.27125127815441 56.09278846946994 H 0.0 **** 0.06
23298 H 35.04535844767969 43.9456558077938 57.42538496533433 H 0.0 **** 0.06
23299 H 36.79292343053143 44.04690028078977 57.74809161578989 H 0.0 **** 0.06
23300 H 36.13317123874745 42.660750487533974 56.847464519550016 H 0.0 **** 0.06
23301 C 27.56656790246715 125.55602602677487 2.453235262633825 C 0.0 **** -0.24
23302 H 26.99887426666229 125.65683991803542 3.3785662394827796 H 0.0 **** 0.06
23303 H 26.879056070015196 125.52428871996997 1.6079228199706108 H 0.0 **** 0.06
23304 H 28.149613316907065 124.63580317430481 2.4837282872424566 H 0.0 **** 0.06
23305 H 28.23740461422043 126.40782977869364 2.3456930406676406 H 0.0 **** 0.06
23306 C 145.52105432609946 124.74290581307368 75.15701234047498 C 0.0 **** -0.24
23307 H 144.45851259779394 124.67113177283078 75.39045287402632 H 0.0 **** 0.06
23308 H 145.7126136277985 124.27436795789617 74.19131298818971 H 0.0 **** 0.06
23309 H 146.09745584398487 124.23472944918583 75.92966099418126 H 0.0 **** 0.06
23310 H 145.81363879680882 125.79237325358822 75.11685842464462 H 0.0 **** 0.06
23311 C 28.89957039577773 118.67871614453226 98.32102226180896 C 0.0 **** -0.24
23312 H 29.84546229671792 118.87168844643146 97.81598458869045 H 0.0 **** 0.06
23313 H 29.09458676747274 118.27958484267454 99.31676658012735 H 0.0 **** 0.06
23314 H 28.321877598485308 117.95563600539099 97.74615010656667 H 0.0 **** 0.06
23315 H 28.336209752366436 119.60872100354361 98.40581438411655 H 0.0 **** 0.06
23316 C 20.444899422390222 36.733428784289586 97.57316480468256 C 0.0 **** -0.24
23317 H 20.440304810009536 37.683515385079396 98.10773870262355 H 0.0 **** 0.06
23318 H 19.743911267714054 36.78254362381777 96.73865636995362 H 0.0 **** 0.06
23319 H 20.146527584606105 35.933359190103424 98.25137261280992 H 0.0 **** 0.06
23320 H 21.44670114631137 36.53370452231248 97.19477167667108 H 0.0 **** 0.06
23321 C 93.7662053405486 119.34400232001379 98.49406536295102 C 0.0 **** -0.24
23322 H 93.74473717949638 120.08228862088727 99.29591470625438 H 0.0 **** 0.06
23323 H 94.66671115016965 118.73654730098762 98.58422400334389 H 0.0 **** 0.06
23324 H 93.76619773474312 119.8549585277555 97.5308677291594 H 0.0 **** 0.06
23325 H 92.88708455476734 118.70510886935627 98.56652652442641 H 0.0 **** 0.06
23326 C 112.81770251852429 25.366027076265993 18.2391274413136 C 0.0 **** -0.24
23327 H 113.56698459611907 24.897536452894116 18.876685885083248 H 0.0 **** 0.06
23328 H 111.89589434186878 25.502975415674257 18.80357468402684 H 0.0 **** 0.06
23329 H 112.62531310418085 24.728283433081828 17.377088462966128 H 0.0 **** 0.06
23330 H 113.18469100780293 26.334759718699303 17.899790705763678 H 0.0 **** 0.06
23331 C 46.64871253477267 111.29504273976862 82.15406179389778 C 0.0 **** -0.24
23332 H 47.56810051366146 111.79046813159609 81.8411986549071 H 0.0 **** 0.06
23333 H 46.56044954764995 110.33627385982201 81.6436563159767 H 0.0 **** 0.06
23334 H 45.794776216741525 111.92239752330325 81.90111401612407 H 0.0 **** 0.06
23335 H 46.67470025063608 111.13174391370482 83.23212305933438 H 0.0 **** 0.06
23336 C 100.94309904799263 135.846081577325 142.4318327213173 C 0.0 **** -0.24
23337 H 99.94731104086236 136.24752126105295 142.24771792564138 H 0.0 **** 0.06
23338 H 101.05110619742823 135.61186524289803 143.4904894290015 H 0.0 **** 0.06
23339 H 101.69069901532481 136.5862289675419 142.14416262187967 H 0.0 **** 0.06
23340 H 101.0841228713661 134.93991743077828 141.8416693794356 H 0.0 **** 0.06
23341 C 99.75421399307561 111.31145319958021 112.07918021358941 C 0.0 **** -0.24
23342 H 99.09637989960343 111.51086327504613 111.23352318869522 H 0.0 **** 0.06
23343 H 99.67972109635488 110.25918823733171 112.35573437824976 H 0.0 **** 0.06
23344 H 99.45621510676969 111.931392581494 112.9247266178892 H 0.0 **** 0.06
23345 H 100.78162595598087 111.54402309549671 111.80211212556159 H 0.0 **** 0.06
23346 C 105.62372519724364 120.44546326156251 56.82004642751525 C 0.0 **** -0.24
23347 H 105.90828588032322 120.35382639576522 57.868439872889866 H 0.0 **** 0.06
23348 H 104.54024451442591 120.36717773246039 56.72956500076239 H 0.0 **** 0.06
23349 H 106.09591994193404 119.64975973987117 56.245105680601625 H 0.0 **** 0.06
23350 H 105.95155098201126 121.4134626154106 56.43854349604672 H 0.0 **** 0.06
23351 C 50.02041809646205 64.60229144934789 90.7631127219679 C 0.0 **** -0.24
23352 H 48.93953282327908 64.69753628326762 90.65440489206793 H 0.0 **** 0.06
23353 H 50.34928486804104 63.665655559714295 90.31499703130453 H 0.0 **** 0.06
23354 H 50.28017131310213 64.60976694913685 91.82242775938926 H 0.0 **** 0.06
23355 H 50.51073466288162 65.43800204228201 90.26326335380321 H 0.0 **** 0.06
23356 C 96.17600621182149 139.58622704028434 71.02294974081713 C 0.0 **** -0.24
23357 H 96.08763812684285 139.7151087395786 69.94481179569269 H 0.0 **** 0.06
23358 H 96.64446938093869 138.6250986438715 71.23710716961006 H 0.0 **** 0.06
23359 H 95.18369549991652 139.6160177061113 71.4745490379554 H 0.0 **** 0.06
23360 H 96.78732304000314 140.3887773918659 71.43575910329372 H 0.0 **** 0.06
23361 C 102.43926882538719 2.3492509254390335 140.0742549047108 C 0.0 **** -0.24
23362 H 102.75400794439926 3.0856987261641216 139.33413676026112 H 0.0 **** 0.06
23363 H 103.31332207902898 1.8166008083590732 140.45026381573962 H 0.0 **** 0.06
23364 H 101.75194214905719 1.6406070686804455 139.6121901684325 H 0.0 **** 0.06
23365 H 101.93942035500842 2.855603536860297 140.8993727087224 H 0.0 **** 0.06
23366 C 100.57950679625188 13.791144993696228 68.13115814660458 C 0.0 **** -0.24
23367 H 100.2232948222545 13.17645615944403 68.9587502140672 H 0.0 **** 0.06
23368 H 101.38651175045251 14.435899240923462 68.47944663094134 H 0.0 **** 0.06
23369 H 99.76050495207036 14.403713660857427 67.75463392512535 H 0.0 **** 0.06
23370 H 100.94713607939917 13.14633833233188 67.33277353587329 H 0.0 **** 0.06
23371 C 72.33200949045448 47.27924363461642 49.65982736283095 C 0.0 **** -0.24
23372 H 71.3341889064543 47.49754423858283 50.0404187802298 H 0.0 **** 0.06
23373 H 72.89410558815462 46.72562865073226 50.412146668130276 H 0.0 **** 0.06
23374 H 72.8470469106349 48.21297978050299 49.43491817003817 H 0.0 **** 0.06
23375 H 72.25160265115801 46.68092013723991 48.752716788361454 H 0.0 **** 0.06
23376 C 48.46461389450002 68.62787186060329 76.23831661139187 C 0.0 **** -0.24
23377 H 47.39906314108089 68.67542311422805 76.01316915427378 H 0.0 **** 0.06
23378 H 48.620500895677594 68.02730415585243 77.13399207305139 H 0.0 **** 0.06
23379 H 48.84461392800418 69.63572516159593 76.405916138339 H 0.0 **** 0.06
23380 H 48.99378606955577 68.17580692678796 75.39915213277291 H 0.0 **** 0.06
23381 C 84.56819104601247 34.54578574201755 92.44759063837266 C 0.0 **** -0.24
23382 H 84.95884177830321 34.82656703683309 91.46991393765538 H 0.0 **** 0.06
23383 H 84.35818993028501 35.44615204218189 93.02660535063795 H 0.0 **** 0.06
23384 H 85.30704158662961 33.9405316775038 92.97294604003669 H 0.0 **** 0.06
23385 H 83.65066715335685 33.97209520467594 92.3213887462276 H 0.0 **** 0.06
23386 C 96.32996433835643 127.26467851941338 98.51115994563276 C 0.0 **** -0.24
23387 H 95.72189725209518 127.85386893902586 97.82442711437557 H 0.0 **** 0.06
23388 H 96.81395750162096 127.92819337446767 99.22756453488063 H 0.0 **** 0.06
23389 H 97.08810138888919 126.71940664973937 97.94932306365138 H 0.0 **** 0.06
23390 H 95.69262333485301 126.55753491003013 99.04373983238673 H 0.0 **** 0.06
23391 C 55.893365406424635 141.45124829770552 95.30701602778048 C 0.0 **** -0.24
23392 H 54.94079393532405 141.31581956085563 95.81703411353779 H 0.0 **** 0.06
23393 H 55.78791826125749 141.1689192143926 94.25919299237547 H 0.0 **** 0.06
23394 H 56.650454235352726 140.82364276392914 95.77768971251834 H 0.0 **** 0.06
23395 H 56.195808006241776 142.49707108868174 95.37343986985876 H 0.0 **** 0.06
23396 C 92.3506615823799 71.09829392991982 70.71864271809089 C 0.0 **** -0.24
23397 H 92.06165015526537 70.48983079346853 69.86209857251455 H 0.0 **** 0.06
23398 H 91.87001554531602 70.71075836505875 71.6172018378754 H 0.0 **** 0.06
23399 H 92.03803396911232 72.12877465670724 70.55455043953157 H 0.0 **** 0.06
23400 H 93.43305874764391 71.06160093230649 70.84103507312852 H 0.0 **** 0.06
23401 C 90.04747729680727 9.158973472668606 24.430191768412897 C 0.0 **** -0.24
23402 H 90.31577107344114 9.215865129511513 23.374707170680608 H 0.0 **** 0.06
23403 H 89.92704908890639 10.167193542549938 24.828219772639386 H 0.0 **** 0.06
23404 H 90.83530285958679 8.642701968794455 24.978156626554494 H 0.0 **** 0.06
23405 H 89.1111063948999 8.61078463722643 24.536664556365167 H 0.0 **** 0.06
23406 C 16.02360317741877 63.924310276526825 7.16114062587134 C 0.0 **** -0.24
23407 H 16.577016754861567 64.02121466709721 8.095243860175277 H 0.0 **** 0.06
23408 H 15.161243954952148 63.275849922114475 7.315454044361427 H 0.0 **** 0.06
23409 H 16.672216412240097 63.49368235071387 6.398686476309649 H 0.0 **** 0.06
23410 H 15.685200393031721 64.90843662598255 6.835970195417172 H 0.0 **** 0.06
23411 C 4.820441826097863 42.50898703856632 114.27918228880941 C 0.0 **** -0.24
23412 H 4.734995166816788 42.976330033996476 115.25993468717701 H 0.0 **** 0.06
23413 H 4.372878803988243 41.515567509756636 114.31072402730246 H 0.0 **** 0.06
23414 H 5.872157563698096 42.42549041852857 114.00594392732586 H 0.0 **** 0.06
23415 H 4.300835270823484 43.1189849625257 113.54021986814377 H 0.0 **** 0.06
23416 C 91.16785555713122 106.6628171733699 122.63812890787158 C 0.0 **** -0.24
23417 H 91.65365900016147 107.34216405701487 123.33815869231353 H 0.0 **** 0.06
23418 H 91.81224189834184 106.50920108780001 121.7726716721727 H 0.0 **** 0.06
23419 H 90.21997212841461 107.0922795772595 122.31405956556326 H 0.0 **** 0.06
23420 H 90.98386825275158 105.70632065189749 123.1283156199944 H 0.0 **** 0.06
23421 C 76.2323184205988 116.21790344506303 12.718029170431919 C 0.0 **** -0.24
23422 H 75.82919238252565 116.30661413905722 11.708979753083042 H 0.0 **** 0.06
23423 H 75.57116131140049 115.59416497127745 13.31983187921142 H 0.0 **** 0.06
23424 H 76.30612999894605 117.2092987442465 13.166794340645993 H 0.0 **** 0.06
23425 H 77.22208493960684 115.76391697973281 12.674827295793165 H 0.0 **** 0.06
23426 C 17.835003923259286 96.40093975198849 143.28673455920472 C 0.0 **** -0.24
23427 H 17.707848702901813 97.0226125283832 144.17404030496493 H 0.0 **** 0.06
23428 H 17.538517940868367 96.96639068760811 142.40300936424714 H 0.0 **** 0.06
23429 H 17.212411001371443 95.5105847697879 143.3746717813232 H 0.0 **** 0.06
23430 H 18.880323438954655 96.10709998056393 143.1973581187633 H 0.0 **** 0.06
23431 C 54.95677660844308 100.44269114558642 134.24329376395733 C 0.0 **** -0.24
23432 H 54.39098620255004 101.2110870613015 133.71649984978262 H 0.0 **** 0.06
23433 H 55.11010414689531 100.75001413230314 135.2786488834567 H 0.0 **** 0.06
23434 H 55.922578132679746 100.30583119577861 133.7577346738105 H 0.0 **** 0.06
23435 H 54.402569210336196 99.50470091837968 134.22099214292479 H 0.0 **** 0.06
23436 C 30.48676363073858 70.37736142468725 78.44307774790448 C 0.0 **** -0.24
23437 H 31.195503058102673 69.55675488210403 78.33833921379997 H 0.0 **** 0.06
23438 H 30.679759053066732 70.9060721475804 79.37727296094107 H 0.0 **** 0.06
23439 H 29.47078236644387 69.98058681663514 78.45370553599145 H 0.0 **** 0.06
23440 H 30.599617364973 71.06481482490199 77.60555837780552 H 0.0 **** 0.06
23441 C 28.023230819172767 39.01106540985896 77.18797881935625 C 0.0 **** -0.24
23442 H 27.596317780578204 38.43863332457687 78.01169459341263 H 0.0 **** 0.06
23443 H 29.104695575581985 38.87420927948037 77.17351181448448 H 0.0 **** 0.06
23444 H 27.791843605503402 40.066808947342366 77.32230064456674 H 0.0 **** 0.06
23445 H 27.599759281276732 38.66179023063094 76.24612712431613 H 0.0 **** 0.06
23446 C 35.578197190483735 2.312606923339075 48.74013312835456 C 0.0 **** -0.24
23447 H 35.90997372447649 1.5345013698030812 49.42821525560976 H 0.0 **** 0.06
23448 H 35.04151170056846 1.8578547795961526 47.90782426393184 H 0.0 **** 0.06
23449 H 36.4441289839408 2.855424553330238 48.36212781835866 H 0.0 **** 0.06
23450 H 34.91728263640243 3.0025318229153015 49.26567810346654 H 0.0 **** 0.06
23451 C 19.125830058523007 45.99928801784711 115.03087165865442 C 0.0 **** -0.24
23452 H 19.277270728824426 45.49347633472641 114.07723537297291 H 0.0 **** 0.06
23453 H 18.981111342855947 45.258136876817616 115.81669947793905 H 0.0 **** 0.06
23454 H 18.244951718330476 46.63830191866768 114.96692251740824 H 0.0 **** 0.06
23455 H 19.999757585483508 46.608486923921504 115.2620085777729 H 0.0 **** 0.06
23456 C 134.014982205906 39.47201489050235 144.14168863868534 C 0.0 **** -0.24
23457 H 133.97751958408915 39.7041042751805 143.07717749209158 H 0.0 **** 0.06
23458 H 133.02616776553478 39.61165770407706 144.57848582398705 H 0.0 **** 0.06
23459 H 134.7260588077335 40.1368654365761 144.6329622423021 H 0.0 **** 0.06
23460 H 134.33094118060504 38.43857815840914 144.27740253677766 H 0.0 **** 0.06
23461 C 90.63827281705531 17.86299800053215 40.992541686541244 C 0.0 **** -0.24
23462 H 90.73399492025828 16.96069399111753 41.5982790413766 H 0.0 **** 0.06
23463 H 89.58720725601083 18.14521129854453 40.92647531511318 H 0.0 **** 0.06
23464 H 91.02708161551246 17.67089685598964 39.99306646528282 H 0.0 **** 0.06
23465 H 91.20367121795533 18.671569627932122 41.453959493273885 H 0.0 **** 0.06
23466 C 138.46437854910243 132.4316952042951 95.87190773795342 C 0.0 **** -0.24
23467 H 138.71446483674833 131.47925710484122 96.33953090120355 H 0.0 **** 0.06
23468 H 138.60842190459667 132.35540407766888 94.79414010329188 H 0.0 **** 0.06
23469 H 139.111553393118 133.21285044110732 96.27109707436165 H 0.0 **** 0.06
23470 H 137.4239605571291 132.67772699019557 96.08377715398186 H 0.0 **** 0.06
23471 C 83.62555333512843 52.00577182696965 90.99343216013503 C 0.0 **** -0.24
23472 H 84.47950486725473 51.540028102015484 90.50140932962188 H 0.0 **** 0.06
23473 H 82.95883333657832 51.231777489356574 91.3742025971176 H 0.0 **** 0.06
23474 H 83.08823617613221 52.627650379009125 90.2773789241572 H 0.0 **** 0.06
23475 H 83.9756389605485 52.6236313374973 91.82073778964354 H 0.0 **** 0.06
23476 C 62.9262620302723 141.39208374859604 89.59716216259653 C 0.0 **** -0.24
23477 H 62.17291187280968 140.60458769244016 89.58168991303683 H 0.0 **** 0.06
23478 H 62.43404565769397 142.36477076403216 89.61916086711824 H 0.0 **** 0.06
23479 H 63.547181431403956 141.31808201128425 88.70483111398187 H 0.0 **** 0.06
23480 H 63.55016564864168 141.2811063175893 90.48415099610213 H 0.0 **** 0.06
23481 C 113.0804551899469 26.50737887411269 79.03504915707936 C 0.0 **** -0.24
23482 H 113.89195632472213 27.141201374466476 78.67604095581791 H 0.0 **** 0.06
23483 H 113.19567410379607 26.342469970943284 80.10707090210016 H 0.0 **** 0.06
23484 H 113.10928407741243 25.550295189816083 78.51515246486434 H 0.0 **** 0.06
23485 H 112.12597702549219 26.997660796306903 78.84377458505483 H 0.0 **** 0.06
23486 C 127.68825020591093 140.6708359334625 18.362685373964247 C 0.0 **** -0.24
23487 H 128.16290144904752 139.81233112994227 17.888131298053082 H 0.0 **** 0.06
23488 H 128.28590232033412 141.5643308059949 18.17788865369073 H 0.0 **** 0.06
23489 H 127.61500833155554 140.49864272053532 19.436591808379326 H 0.0 **** 0.06
23490 H 126.69006662268225 140.80911954170904 17.94837868517527 H 0.0 **** 0.06
23491 C 79.19402160812051 127.28414288469946 70.42792775076768 C 0.0 **** -0.24
23492 H 78.54298092299383 126.41263050705552 70.49713831099292 H 0.0 **** 0.06
23493 H 80.14764828386794 126.99087527627154 69.98890705466496 H 0.0 **** 0.06
23494 H 79.36205269599631 127.69158254317006 71.42510947790545 H 0.0 **** 0.06
23495 H 78.72231860297711 128.0413256618273 69.80144836381665 H 0.0 **** 0.06
23496 C 104.5016247219505 34.141999414727536 55.13712937981634 C 0.0 **** -0.24
23497 H 104.3825763914554 33.39649672651427 55.92312563765289 H 0.0 **** 0.06
23498 H 104.6289100694531 35.12684927350101 55.58728171123418 H 0.0 **** 0.06
23499 H 103.61550447064158 34.14459009502198 54.5024939887586 H 0.0 **** 0.06
23500 H 105.37855716482615 33.90009352237723 54.537063629499585 H 0.0 **** 0.06
23501 C 116.1687607549057 32.61816272487371 142.07098007876976 C 0.0 **** -0.24
23502 H 116.22043928058183 32.94571830426409 141.03275680860702 H 0.0 **** 0.06
23503 H 115.36876558836862 31.885731965668327 142.18168165554306 H 0.0 **** 0.06
23504 H 115.96874831304062 33.4757015521992 142.71308915111328 H 0.0 **** 0.06
23505 H 117.11790861983253 32.16499427758629 142.35666622600255 H 0.0 **** 0.06
23506 C 81.2771470073942 68.17062137634383 78.31629407837174 C 0.0 **** -0.24
23507 H 81.28742653045839 67.26944197017013 78.92898640305873 H 0.0 **** 0.06
23508 H 80.66983593847945 68.9342360008223 78.80338741127683 H 0.0 **** 0.06
23509 H 80.85524420571062 67.93979139296033 77.33736787803173 H 0.0 **** 0.06
23510 H 82.29577450192278 68.53910049897661 78.19448658698632 H 0.0 **** 0.06
23511 C 25.413837475938983 12.578072245052056 89.0507521025242 C 0.0 **** -0.24
23512 H 24.3335856716405 12.438787889942034 89.00660674627164 H 0.0 **** 0.06
23513 H 25.63835693062869 13.631625268624362 89.21906717636313 H 0.0 **** 0.06
23514 H 25.86048351548142 12.257315037667752 88.10978291465051 H 0.0 **** 0.06
23515 H 25.82269872898395 11.984532878211837 89.86852554113119 H 0.0 **** 0.06
23516 C 9.98961225303455 62.872678230246734 59.59652341289511 C 0.0 **** -0.24
23517 H 8.974920835243495 62.79760178593068 59.20410934639804 H 0.0 **** 0.06
23518 H 9.953285294298496 62.96354293685083 60.68224430939573 H 0.0 **** 0.06
23519 H 10.478466540271853 63.75085530815244 59.17367067214545 H 0.0 **** 0.06
23520 H 10.550850577244688 61.978649266506395 59.32460677719473 H 0.0 **** 0.06
23521 C 21.573141173626396 51.65300877592858 92.54814951981675 C 0.0 **** -0.24
23522 H 22.599876059079833 51.71680345142897 92.18908466413188 H 0.0 **** 0.06
23523 H 21.479112277043924 52.20962383891538 93.48077385462132 H 0.0 **** 0.06
23524 H 21.313239934163164 50.608830515004 92.71960203352452 H 0.0 **** 0.06
23525 H 20.900821860826426 52.07725352611118 91.80189750852222 H 0.0 **** 0.06
23526 C 11.441575829179982 112.60395001154686 14.407723942131184 C 0.0 **** -0.24
23527 H 11.011604366900997 111.61458715627899 14.248561698098712 H 0.0 **** 0.06
23528 H 10.654305035764821 113.29829066947971 14.702350267323453 H 0.0 **** 0.06
23529 H 11.906002415551683 112.95098182958995 13.484513362496557 H 0.0 **** 0.06
23530 H 12.19317027756074 112.55078032285994 15.195066717010292 H 0.0 **** 0.06
23531 C 55.15840491395552 65.44843227048685 77.39762876415392 C 0.0 **** -0.24
23532 H 54.995430649801236 64.37957481675247 77.25984623691522 H 0.0 **** 0.06
23533 H 56.22261239794926 65.63811698401997 77.53494593375564 H 0.0 **** 0.06
23534 H 54.611019194164726 65.78833180899997 78.27655655147606 H 0.0 **** 0.06
23535 H 54.8032579840858 65.98490758975481 76.51847079660223 H 0.0 **** 0.06
23536 C 81.94865305254228 100.0631731105525 92.94675006456364 C 0.0 **** -0.24
23537 H 82.65524785735772 100.82643520227225 92.61790247090951 H 0.0 **** 0.06
23538 H 80.9939599190592 100.21291788888817 92.4429104057161 H 0.0 **** 0.06
23539 H 81.80859281039773 100.1402020833394 94.02436989832088 H 0.0 **** 0.06
23540 H 82.33989341838401 99.07614873024403 92.70025717881052 H 0.0 **** 0.06
23541 C 92.81078711859135 122.80711257278286 54.897465086496226 C 0.0 **** -0.24
23542 H 91.97771103124006 123.03390112497621 54.23208392871436 H 0.0 **** 0.06
23543 H 93.32912131986177 123.73093002964194 55.158564595927686 H 0.0 **** 0.06
23544 H 93.50360405563498 122.13157020852573 54.3952458883457 H 0.0 **** 0.06
23545 H 92.43372386307874 122.33302901409188 55.80384028046281 H 0.0 **** 0.06
23546 C 19.354011522513808 113.78961671467995 33.8367899532667 C 0.0 **** -0.24
23547 H 20.309752673717767 113.65919045545029 33.33036553888411 H 0.0 **** 0.06
23548 H 18.951852536730037 114.77667940491533 33.605263801817955 H 0.0 **** 0.06
23549 H 19.499179508356463 113.69986162052557 34.913889868111426 H 0.0 **** 0.06
23550 H 18.655976706066504 113.02372275665444 33.49835717003532 H 0.0 **** 0.06
23551 C 28.34836917455135 73.64552894828853 22.415555097657986 C 0.0 **** -0.24
23552 H 28.093516590175682 73.22417972240534 21.443126752488922 H 0.0 **** 0.06
23553 H 27.448177192360447 74.0364581356495 22.88907978685205 H 0.0 **** 0.06
23554 H 29.070806966140026 74.45130693943563 22.283587734792732 H 0.0 **** 0.06
23555 H 28.783046007386986 72.86826182642857 23.044987238422152 H 0.0 **** 0.06
23556 C 79.79266033058526 34.51366593247053 18.37591375676365 C 0.0 **** -0.24
23557 H 80.83738941251406 34.824677689107595 18.404087634836372 H 0.0 **** 0.06
23558 H 79.15266073820165 35.37477582098163 18.572749359720575 H 0.0 **** 0.06
23559 H 79.62087861201292 33.750297234346895 19.13423040078814 H 0.0 **** 0.06
23560 H 79.56201333437164 34.10675223323716 17.390508167611102 H 0.0 **** 0.06
23561 C 25.1915397165861 12.216177042079863 8.300882188293741 C 0.0 **** -0.24
23562 H 24.5518252440517 12.310266894548562 7.423240803570167 H 0.0 **** 0.06
23563 H 25.997693425265574 11.513034159925127 8.088426923085962 H 0.0 **** 0.06
23564 H 24.60198906121782 11.849795639092207 9.14160664461781 H 0.0 **** 0.06
23565 H 25.61408807317227 13.188996893228591 8.549333907364655 H 0.0 **** 0.06
23566 C 57.85177139318827 112.50202869449036 139.9718642707293 C 0.0 **** -0.24
23567 H 56.8997037193225 112.92425455010154 140.29274485420794 H 0.0 **** 0.06
23568 H 57.73349988171637 112.04676555631393 138.98767917718428 H 0.0 **** 0.06
23569 H 58.17329837465252 111.74475159099391 140.68627986922414 H 0.0 **** 0.06
23570 H 58.600450814107745 113.29254803332294 139.9187681035174 H 0.0 **** 0.06
23571 C 53.64043859284527 3.80368530503344 65.19059997268836 C 0.0 **** -0.24
23572 H 54.315626754990774 4.047085647045407 66.01144475147561 H 0.0 **** 0.06
23573 H 52.640195604758674 3.623655640158887 65.58630850334414 H 0.0 **** 0.06
23574 H 53.9957868330726 2.908568698329475 64.68135079017462 H 0.0 **** 0.06
23575 H 53.609798773597106 4.634295094350847 64.48684405664409 H 0.0 **** 0.06
23576 C 124.20947693003782 143.72221156418934 0.9364950194421908 C 0.0 **** -0.24
23577 H 125.20667939259131 144.0854723558298 1.1863245057241727 H 0.0 **** 0.06
23578 H 123.72722377847876 143.33686370482775 1.8359064405927654 H 0.0 **** 0.06
23579 H 124.28787932043042 142.9263957261032 0.1962314951540236 H 0.0 **** 0.06
23580 H 123.61618064095437 144.54105504034501 0.5289710419337155 H 0.0 **** 0.06
23581 C 79.04594878410992 131.7966439712307 2.895515923387336 C 0.0 **** -0.24
23582 H 80.07606803630802 131.9370680214949 3.2236398747512567 H 0.0 **** 0.06
23583 H 78.97717983841096 130.8926041644026 2.2898387904357946 H 0.0 **** 0.06
23584 H 78.73288926185657 132.65685062390867 2.3037354324827106 H 0.0 **** 0.06
23585 H 78.39834480193369 131.69983277859205 3.766966194747738 H 0.0 **** 0.06
23586 C 136.27316889559415 61.25479878016915 5.913425306655547 C 0.0 **** -0.24
23587 H 135.69815537949492 60.34147504406371 5.758971009154603 H 0.0 **** 0.06
23588 H 135.94887881251069 62.01277464294793 5.199965807677156 H 0.0 **** 0.06
23589 H 137.33234998209826 61.04625988862614 5.7660896095681125 H 0.0 **** 0.06
23590 H 136.11286558813956 61.61795427689361 6.928141913934034 H 0.0 **** 0.06
23591 C 29.4963143323603 36.88935174363351 31.264320615330945 C 0.0 **** -0.24
23592 H 29.78786344459192 35.862045369202264 31.04570765424623 H 0.0 **** 0.06
23593 H 28.48389123449269 36.90053093828723 31.669469284314545 H 0.0 **** 0.06
23594 H 29.52802108563327 37.4788261116756 30.34821116122808 H 0.0 **** 0.06
23595 H 30.185087902344748 37.31406300064481 31.99493147946211 H 0.0 **** 0.06
23596 C 79.81693410881924 38.44795808426933 15.242932020032868 C 0.0 **** -0.24
23597 H 78.7776784548782 38.67201819098118 15.487027752415258 H 0.0 **** 0.06
23598 H 80.46568856320356 39.196557242200896 15.697885712432821 H 0.0 **** 0.06
23599 H 79.94657324277098 38.46387684389308 14.160500862264144 H 0.0 **** 0.06
23600 H 80.07466673901608 37.4606511685283 15.624703930455354 H 0.0 **** 0.06
23601 C 3.846690596774721 64.17179152221405 22.45050236021183 C 0.0 **** -0.24
23602 H 3.9835897510659777 63.17136041115276 22.860762158262816 H 0.0 **** 0.06
23603 H 3.353331786490884 64.80360929818983 23.189654114165137 H 0.0 **** 0.06
23604 H 3.2302112389053548 64.11467108717227 21.552720422926 H 0.0 **** 0.06
23605 H 4.817982686054506 64.59768910161034 22.197749811536312 H 0.0 **** 0.06
23606 C 128.88802011832834 59.00802448629213 58.3398315687341 C 0.0 **** -0.24
23607 H 128.10644489515133 58.40520482715465 57.87720047033196 H 0.0 **** 0.06
23608 H 128.8238092807055 58.913649856496875 59.42456349995538 H 0.0 **** 0.06
23609 H 128.75549883011686 60.052937010724165 58.05760849659967 H 0.0 **** 0.06
23610 H 129.86339118049918 58.660548845559106 58.000519281752304 H 0.0 **** 0.06
23611 C 31.848879167372004 118.89504143569737 116.61441396637815 C 0.0 **** -0.24
23612 H 31.73342780263036 119.54775983794893 115.74974089560652 H 0.0 **** 0.06
23613 H 31.144812278699817 119.19318087781666 117.39171224618121 H 0.0 **** 0.06
23614 H 32.86697629464575 118.97542067767911 116.99718592751856 H 0.0 **** 0.06
23615 H 31.651015301408876 117.86420977800672 116.32016765617675 H 0.0 **** 0.06
23616 C 131.09262264692777 0.8254304142478226 29.471394004282217 C 0.0 **** -0.24
23617 H 131.09812652404204 0.4665346986226524 30.49995144591125 H 0.0 **** 0.06
23618 H 131.37359282791695 1.878108057209591 29.452122129667146 H 0.0 **** 0.06
23619 H 130.09425502207537 0.7076914653289705 29.05039814869056 H 0.0 **** 0.06
23620 H 131.8052581933999 0.24741171387143268 28.882365234511298 H 0.0 **** 0.06
23621 C 112.46326522581597 95.22484088194653 98.76944744479329 C 0.0 **** -0.24
23622 H 113.42758261159986 95.68355375678235 98.99200406904798 H 0.0 **** 0.06
23623 H 111.8008477736488 95.34053106835935 99.62752949973246 H 0.0 **** 0.06
23624 H 112.60521542262535 94.16542747193644 98.55906159334114 H 0.0 **** 0.06
23625 H 112.02198798841249 95.71344278914205 97.90077001875107 H 0.0 **** 0.06
23626 C 142.0943845498281 98.76133615332137 113.14595291470715 C 0.0 **** -0.24
23627 H 141.61689332959614 97.9088080069628 112.66165564544832 H 0.0 **** 0.06
23628 H 141.33948781162078 99.50538525501682 113.39857062987863 H 0.0 **** 0.06
23629 H 142.82575745577796 99.2013838549382 112.46777255113989 H 0.0 **** 0.06
23630 H 142.59629261018173 98.42826774872074 114.05441515129644 H 0.0 **** 0.06
23631 C 137.0519008406515 4.800591369111828 3.9250825357628294 C 0.0 **** -0.24
23632 H 137.15820219115 3.7508800816101484 4.199029863271907 H 0.0 **** 0.06
23633 H 136.13090274377524 5.196542799177905 4.355076658931605 H 0.0 **** 0.06
23634 H 137.01582846178982 4.891372794448245 2.8399561070008197 H 0.0 **** 0.06
23635 H 137.9026614386674 5.363275371133881 4.309253084371253 H 0.0 **** 0.06
23636 C 115.26589765233156 97.23908276977062 43.580090374398026 C 0.0 **** -0.24
23637 H 115.198957761704 98.32109939731924 43.691965081479395 H 0.0 **** 0.06
23638 H 114.2862537556992 96.79534725578065 43.757715057621 H 0.0 **** 0.06
23639 H 115.98053414973465 96.8436358275087 44.30224292758078 H 0.0 **** 0.06
23640 H 115.59735567270546 96.99765798004245 42.570381243577685 H 0.0 **** 0.06
23641 C 118.27202215652784 63.02791602016646 65.71307860325935 C 0.0 **** -0.24
23642 H 118.16269406283124 63.596223731680055 66.63675744878553 H 0.0 **** 0.06
23643 H 118.83993525913729 63.6132739577254 64.99069668120823 H 0.0 **** 0.06
23644 H 117.28609310758935 62.80468725012241 65.30550686881298 H 0.0 **** 0.06
23645 H 118.7976891019726 62.095899414066025 65.92018532662739 H 0.0 **** 0.06
23646 C 106.86610706558852 31.36898691277176 92.88195877701716 C 0.0 **** -0.24
23647 H 107.144288611583 32.42226214216561 92.84883469323645 H 0.0 **** 0.06
23648 H 107.39398866955943 30.880176098541284 93.70156963059642 H 0.0 **** 0.06
23649 H 107.13531144105886 30.892268316997615 91.94029046501507 H 0.0 **** 0.06
23650 H 105.7905703714575 31.282322647833695 93.03932161477033 H 0.0 **** 0.06
23651 C 35.419055394154405 48.279196171502846 55.2289027687693 C 0.0 **** -0.24
23652 H 36.13033743851272 49.10378519433701 55.27105337113235 H 0.0 **** 0.06
23653 H 35.207795392855616 47.93122751633048 56.24099614795418 H 0.0 **** 0.06
23654 H 35.84321967874482 47.46270807824459 54.645052855585476 H 0.0 **** 0.06
23655 H 34.49610893035727 48.61951345113964 54.76101089708928 H 0.0 **** 0.06
23656 C 65.12771568768088 128.3718723090204 83.9512288852922 C 0.0 **** -0.24
23657 H 64.90458785967255 127.5930528390916 84.68075484218127 H 0.0 **** 0.06
23658 H 66.1945854717907 128.36412851558302 83.72803884726055 H 0.0 **** 0.06
23659 H 64.8468445070252 129.34229900272996 84.35900977743553 H 0.0 **** 0.06
23660 H 64.56322330192748 128.1842556955685 83.03764568384865 H 0.0 **** 0.06
23661 C 8.694425406113822 49.90984088898631 52.28058775443036 C 0.0 **** -0.24
23662 H 9.102844164571678 50.48252662059889 53.11222649361774 H 0.0 **** 0.06
23663 H 9.418219234875579 49.15623209991452 51.96856495207845 H 0.0 **** 0.06
23664 H 8.483742045410537 50.57944764347303 51.44689704491957 H 0.0 **** 0.06
23665 H 7.771841350136867 49.42027834603044 52.59500172027683 H 0.0 **** 0.06
23666 C 27.479456762480368 103.83550216420973 107.52368424629277 C 0.0 **** -0.24
23667 H 26.62681291149181 103.73972761254096 108.19462352655397 H 0.0 **** 0.06
23668 H 27.91337684379448 102.85139353874409 107.34337195138052 H 0.0 **** 0.06
23669 H 28.228297134020863 104.4846960760902 107.9773573181861 H 0.0 **** 0.06
23670 H 27.150705596647924 104.26654929482338 106.57764990671107 H 0.0 **** 0.06
23671 C 113.78840417491526 112.76133957293564 96.5360547677643 C 0.0 **** -0.24
23672 H 113.31911112875767 111.79013685141058 96.6976322148581 H 0.0 **** 0.06
23673 H 113.03896167053173 113.47389195981685 96.19086649370645 H 0.0 **** 0.06
23674 H 114.57243013512195 112.66437493770798 95.78455354857297 H 0.0 **** 0.06
23675 H 114.2228925616541 113.11451535475106 97.47112567162218 H 0.0 **** 0.06
23676 C 53.613237409277616 119.13488346121416 52.31213972926915 C 0.0 **** -0.24
23677 H 54.55997613710241 119.36630418579632 51.82473835819988 H 0.0 **** 0.06
23678 H 52.97418784133785 118.58504136444917 51.6209094980385 H 0.0 **** 0.06
23679 H 53.119172808446905 120.06137886943078 52.60523585366694 H 0.0 **** 0.06
23680 H 53.80027302554052 118.52618090138613 53.19726390427489 H 0.0 **** 0.06
23681 C 133.75789495747122 108.822424440871 83.1197141082117 C 0.0 **** -0.24
23682 H 133.63826338379175 108.5676884368722 84.1732793882488 H 0.0 **** 0.06
23683 H 134.71200800912507 108.43737058040071 82.7599145758222 H 0.0 **** 0.06
23684 H 133.734967349554 109.90599208727625 83.00405783590313 H 0.0 **** 0.06
23685 H 132.94529589646456 108.37794765341593 82.5445062537963 H 0.0 **** 0.06
23686 C 94.19231282378409 63.66258281941599 112.29948639389124 C 0.0 **** -0.24
23687 H 94.72049895292047 63.26128604146709 111.43440303493907 H 0.0 **** 0.06
23688 H 93.11835697710791 63.62462580004653 112.11797059300449 H 0.0 **** 0.06
23689 H 94.49792957914721 64.69618021696469 112.463159033701 H 0.0 **** 0.06
23690 H 94.43450543985026 63.06820991693753 113.18021306244202 H 0.0 **** 0.06
23691 C 64.88604816852649 141.70803862093706 14.682250993221828 C 0.0 **** -0.24
23692 H 65.5778659695833 142.53876597228202 14.541052131627225 H 0.0 **** 0.06
23693 H 65.33816609309713 140.96680311666793 15.34052765629093 H 0.0 **** 0.06
23694 H 64.66550935674609 141.2519305717211 13.717074334633537 H 0.0 **** 0.06
23695 H 63.96252974483903 142.07629894059878 15.128839111660852 H 0.0 **** 0.06
23696 C 40.88334435370655 116.25703787657434 6.226157867812333 C 0.0 **** -0.24
23697 H 41.397492052054915 115.74082782465965 7.037855651261708 H 0.0 **** 0.06
23698 H 41.05024555468985 117.33010016372052 6.316058828857791 H 0.0 **** 0.06
23699 H 39.81503621354321 116.04851794033326 6.283603916853764 H 0.0 **** 0.06
23700 H 41.27072606145994 115.90658444996077 5.269455350152185 H 0.0 **** 0.06
23701 C 96.72672749528272 98.70673395218104 23.293262331968876 C 0.0 **** -0.24
23702 H 96.72650033912913 97.75332035907735 23.821353569828965 H 0.0 **** 0.06
23703 H 95.7059036574459 99.0842102287681 23.224798475994554 H 0.0 **** 0.06
23704 H 97.1299391858816 98.565770336785 22.29005820438207 H 0.0 **** 0.06
23705 H 97.34337777892972 99.42309923343076 23.83629190513924 H 0.0 **** 0.06
23706 C 37.17507599660044 125.95735865995104 40.102445266104375 C 0.0 **** -0.24
23707 H 36.46713826254572 125.27016486487253 39.638192333099326 H 0.0 **** 0.06
23708 H 36.83906657681294 126.19606389049136 41.11197952515238 H 0.0 **** 0.06
23709 H 37.23364701213251 126.87116359453324 39.51263869001693 H 0.0 **** 0.06
23710 H 38.158689165634 125.4891242352939 40.14758486197201 H 0.0 **** 0.06
23711 C 42.345794167330666 86.92403060419724 112.60028623985681 C 0.0 **** -0.24
23712 H 42.22623966060189 87.44140085955597 111.64774874074203 H 0.0 **** 0.06
23713 H 43.4058801426425 86.76744374555898 112.79797069943203 H 0.0 **** 0.06
23714 H 41.838675242315844 85.9594425183568 112.55431682261309 H 0.0 **** 0.06
23715 H 41.9107587523564 87.52521395840323 113.3980271837604 H 0.0 **** 0.06
23716 C 123.36986952664373 140.5138705480062 27.527170417793343 C 0.0 **** -0.24
23717 H 124.44786539240195 140.66529120258252 27.473873289264276 H 0.0 **** 0.06
23718 H 122.87629886270301 141.157701723705 26.798716340489563 H 0.0 **** 0.06
23719 H 123.01740421949499 140.76136395270993 28.52881463992506 H 0.0 **** 0.06
23720 H 123.13824205622423 139.47186887767603 27.307857616466862 H 0.0 **** 0.06
23721 C 44.710199775359314 31.12236483680894 9.348381241391664 C 0.0 **** -0.24
23722 H 45.03219606537755 31.99648259779579 8.782489537124828 H 0.0 **** 0.06
23723 H 44.07072216722008 31.43968686661438 10.173296450491982 H 0.0 **** 0.06
23724 H 45.583105118188485 30.60357625373811 9.743441394503208 H 0.0 **** 0.06
23725 H 44.152815992885564 30.45117730354164 8.694428993808199 H 0.0 **** 0.06
23726 C 40.96110186827812 73.15181766364233 139.15784803512616 C 0.0 **** -0.24
23727 H 41.297145989412314 73.96976589671849 139.79507321473204 H 0.0 **** 0.06
23728 H 40.54148478862666 72.35848676808192 139.77560320354837 H 0.0 **** 0.06
23729 H 41.8070380603703 72.76263581563185 138.59161722847 H 0.0 **** 0.06
23730 H 40.20022919013999 73.51804857872665 138.46913797341517 H 0.0 **** 0.06
23731 C 21.967398161852266 21.218839649258655 117.64718032729762 C 0.0 **** -0.24
23732 H 20.938963212353094 21.26639297720982 117.28873486969572 H 0.0 **** 0.06
23733 H 22.373767719576648 20.225264649636813 117.45522604651067 H 0.0 **** 0.06
23734 H 21.988792407890458 21.41999939792754 118.71851359165414 H 0.0 **** 0.06
23735 H 22.568748813681573 21.963943226610013 117.12555403995172 H 0.0 **** 0.06
23736 C 122.33897749667233 76.26764923258389 24.772360634796804 C 0.0 **** -0.24
23737 H 121.36317367813041 76.70951319116851 24.975106943002174 H 0.0 **** 0.06
23738 H 122.64341370646491 75.65636314797622 25.62282279176319 H 0.0 **** 0.06
23739 H 123.07017927837046 77.05942588993226 24.61365802991328 H 0.0 **** 0.06
23740 H 122.27708056687032 75.64514453355865 23.88002799262123 H 0.0 **** 0.06
23741 C 54.16730855777186 36.278564772817916 17.344836146196656 C 0.0 **** -0.24
23742 H 54.366237594549176 36.030347563016534 18.387323721904124 H 0.0 **** 0.06
23743 H 53.345615485095806 35.66389340904301 16.975246413412407 H 0.0 **** 0.06
23744 H 55.060082929365876 36.08748910766769 16.749344827358357 H 0.0 **** 0.06
23745 H 53.89682404713622 37.33165161589221 17.267356282644386 H 0.0 **** 0.06
23746 C 55.32232480908516 42.251787890134324 22.837236645101967 C 0.0 **** -0.24
23747 H 55.35233591137478 41.79564950615688 21.84785502342254 H 0.0 **** 0.06
23748 H 54.507482927674744 42.975945423793746 22.878486581401432 H 0.0 **** 0.06
23749 H 56.2677429385397 42.75660818512034 23.03424400310982 H 0.0 **** 0.06
23750 H 55.15936929620426 41.47833264618214 23.588247572809962 H 0.0 **** 0.06
23751 C 65.02320870727004 135.6801985486594 26.478025359766626 C 0.0 **** -0.24
23752 H 64.84619782472797 135.08363014459889 27.373433770284166 H 0.0 **** 0.06
23753 H 65.99524602992122 136.16756474105324 26.551995106655497 H 0.0 **** 0.06
23754 H 64.2426476671063 136.43557403596856 26.38583401673563 H 0.0 **** 0.06
23755 H 65.0064771475935 135.03207770554263 25.601106676226344 H 0.0 **** 0.06
23756 C 3.6313796225283 15.584930522035826 113.24168753455687 C 0.0 **** -0.24
23757 H 3.2907790204232583 14.694527985909417 113.77111221683215 H 0.0 **** 0.06
23758 H 4.551932991012336 15.948793672759287 113.6987542987561 H 0.0 **** 0.06
23759 H 2.8651849218563825 16.357836847095058 113.30154892657389 H 0.0 **** 0.06
23760 H 3.816944569291934 15.336939051103599 112.19628483329065 H 0.0 **** 0.06
23761 C 126.79456236777602 3.545247535745233 118.15984541984105 C 0.0 **** -0.24
23762 H 127.5000360630493 3.7891607351056393 118.95334151749367 H 0.0 **** 0.06
23763 H 127.30599251438079 3.5759916686603788 117.1976999498469 H 0.0 **** 0.06
23764 H 125.97966434127338 4.269860429174059 118.16214809232278 H 0.0 **** 0.06
23765 H 126.39255655240046 2.5459773100408256 118.32619211970089 H 0.0 **** 0.06
23766 C 106.98191273842926 125.79087717170574 13.873095065746405 C 0.0 **** -0.24
23767 H 106.82732228689522 124.82478453238363 14.352862374676114 H 0.0 **** 0.06
23768 H 107.7173975382942 125.68581367066344 13.074052658444629 H 0.0 **** 0.06
23769 H 107.34466312634035 126.50872367163181 14.60933041627036 H 0.0 **** 0.06
23770 H 106.03899736951158 126.14348299460731 13.45441062134637 H 0.0 **** 0.06
23771 C 66.42805686873993 141.26821403917825 24.42981881940335 C 0.0 **** -0.24
23772 H 65.68972364044049 141.73072697475342 25.08562273053397 H 0.0 **** 0.06
23773 H 67.22300808307321 141.98255161858305 24.216407780838637 H 0.0 **** 0.06
23774 H 65.94776950981827 140.97066478134926 23.49756917627036 H 0.0 **** 0.06
23775 H 66.84827781820235 140.39027324340802 24.919167522791724 H 0.0 **** 0.06
23776 C 110.3721168287898 138.50255376963247 112.6867197926773 C 0.0 **** -0.24
23777 H 109.43709670774346 138.8749225202859 112.26818451007175 H 0.0 **** 0.06
23778 H 110.3016005863074 138.48533884605166 113.77447299018719 H 0.0 **** 0.06
23779 H 111.19053011385365 139.15634647011973 112.38493724603207 H 0.0 **** 0.06
23780 H 110.55887215821893 137.49337598862706 112.31793855300755 H 0.0 **** 0.06
23781 C 108.33663992282654 84.19561026541511 64.68406895181188 C 0.0 **** -0.24
23782 H 107.26604465972441 84.35344896789103 64.54841614640642 H 0.0 **** 0.06
23783 H 108.5977882327234 83.18623746989294 64.36644967014163 H 0.0 **** 0.06
23784 H 108.59089211141672 84.32301253279847 65.73659468013217 H 0.0 **** 0.06
23785 H 108.88865964523644 84.91990742062004 64.08575990235248 H 0.0 **** 0.06
23786 C 38.49495379997833 12.591492394577784 2.351397515461276 C 0.0 **** -0.24
23787 H 38.813149633073294 13.12962222250249 3.24406519070099 H 0.0 **** 0.06
23788 H 38.975068621514765 11.61251219566114 2.3284087537686204 H 0.0 **** 0.06
23789 H 38.78093509729352 13.15820647795826 1.4660231954848584 H 0.0 **** 0.06
23790 H 37.41279453634499 12.466461983003427 2.369274134198381 H 0.0 **** 0.06
23791 C 104.46505939497219 54.61233297732568 17.533110546848356 C 0.0 **** -0.24
23792 H 104.52177176034986 53.7556585583707 18.205597422754074 H 0.0 **** 0.06
23793 H 105.29389396217933 54.57464615851825 16.826523085396417 H 0.0 **** 0.06
23794 H 104.52312642562245 55.53324953400622 18.114203359404243 H 0.0 **** 0.06
23795 H 103.52129755327583 54.58509500426149 16.99018192142728 H 0.0 **** 0.06
23796 C 74.61197957618575 53.38956357424232 44.78586551420551 C 0.0 **** -0.24
23797 H 75.08385400133442 52.68029464266699 44.10481260162999 H 0.0 **** 0.06
23798 H 73.74320125570956 52.92234656083366 45.2508154455179 H 0.0 **** 0.06
23799 H 74.2973131822947 54.27199800232664 44.229645780009264 H 0.0 **** 0.06
23800 H 75.32497634206389 53.68057107151817 45.556545147069244 H 0.0 **** 0.06
23801 C 132.61313787564063 121.54726714559287 55.59398727184188 C 0.0 **** -0.24
23802 H 132.1156365109635 121.74677337456329 54.64579452881472 H 0.0 **** 0.06
23803 H 131.9332129728639 121.7749570638948 56.41557802760602 H 0.0 **** 0.06
23804 H 133.50402964021941 122.1701684992265 55.67597920809422 H 0.0 **** 0.06
23805 H 132.90004863393392 120.49688887604874 55.64026457564623 H 0.0 **** 0.06
23806 C 27.80959112117486 109.36328710943081 9.749391986991213 C 0.0 **** -0.24
23807 H 27.586251949834633 109.42414771328384 8.68403358794356 H 0.0 **** 0.06
23808 H 27.012584612314868 109.84749957098671 10.315470516635855 H 0.0 **** 0.06
23809 H 28.755235650229622 109.86570297005323 9.9514602864339 H 0.0 **** 0.06
23810 H 27.882539351445104 108.31716917402957 10.046384761367023 H 0.0 **** 0.06
23811 C 94.4891128828797 135.96567868249818 17.19855706557066 C 0.0 **** -0.24
23812 H 94.33361770159135 134.93594053742126 17.518851391195405 H 0.0 **** 0.06
23813 H 93.98086066560153 136.13080729971549 16.248509633527632 H 0.0 **** 0.06
23814 H 95.5561863935877 136.15197044019502 17.077903049104805 H 0.0 **** 0.06
23815 H 94.08521707535903 136.64455692330833 17.949565323639433 H 0.0 **** 0.06
23816 C 140.45305022061527 88.40573428445802 68.90218100579486 C 0.0 **** -0.24
23817 H 139.54495174087663 88.93405634258627 68.61273528358183 H 0.0 **** 0.06
23818 H 141.01982479105033 89.01537528683328 69.60564267193806 H 0.0 **** 0.06
23819 H 141.05886389294307 88.21469527840102 68.0160930794153 H 0.0 **** 0.06
23820 H 140.18852761152885 87.45824941992751 69.37208858726578 H 0.0 **** 0.06
23821 C 61.95681765600345 62.76487610771247 35.668818797505196 C 0.0 **** -0.24
23822 H 61.6246625173312 62.2597885822166 36.57584385409834 H 0.0 **** 0.06
23823 H 62.57423631725618 62.08630609531326 35.081050314875284 H 0.0 **** 0.06
23824 H 62.54000014766069 63.646607728552596 35.93790337111858 H 0.0 **** 0.06
23825 H 61.089299546372715 63.068659044206896 35.08404012300727 H 0.0 **** 0.06
23826 C 18.653680632821192 108.12638831066266 109.89080424754276 C 0.0 **** -0.24
23827 H 19.60713651435225 107.72833620111436 110.2398577556187 H 0.0 **** 0.06
23828 H 18.605506737794542 108.0522184008899 108.80389898762697 H 0.0 **** 0.06
23829 H 18.56506381772988 109.17065471495687 110.18802903046263 H 0.0 **** 0.06
23830 H 17.83812202520062 107.55158387209985 110.3303550856266 H 0.0 **** 0.06
23831 C 25.766002079069835 110.17802554429532 5.206230611968607 C 0.0 **** -0.24
23832 H 26.552536065570138 109.86018463727969 4.520988763473724 H 0.0 **** 0.06
23833 H 25.263924470508982 111.0561274386143 4.799269848001558 H 0.0 **** 0.06
23834 H 26.204534284688094 110.42426540343978 6.172537121964041 H 0.0 **** 0.06
23835 H 25.044625903613152 109.37004101967379 5.3290936548017385 H 0.0 **** 0.06
23836 C 99.59474202103227 134.45305290413134 106.8621550093575 C 0.0 **** -0.24
23837 H 98.51916708887555 134.48313012055652 107.03899070602021 H 0.0 **** 0.06
23838 H 100.00543758391728 135.4585938657207 106.96023906754199 H 0.0 **** 0.06
23839 H 99.78702979496606 134.07779007905486 105.85776213055375 H 0.0 **** 0.06
23840 H 100.06370033114614 133.79536336531024 107.59292953047778 H 0.0 **** 0.06
23841 C 65.93449281701419 84.53401179349541 33.66438695657456 C 0.0 **** -0.24
23842 H 65.6470820262723 85.39835381080209 33.06655439896082 H 0.0 **** 0.06
23843 H 66.49062772913379 83.83069007123561 33.044182609024176 H 0.0 **** 0.06
23844 H 65.03971250850145 84.04709659871932 34.05198298637163 H 0.0 **** 0.06
23845 H 66.56043777283077 84.85828865631373 34.49543587404122 H 0.0 **** 0.06
23846 C 88.71230404770081 98.83876315893667 72.1152545866862 C 0.0 **** -0.24
23847 H 89.69677573330848 99.30702783145642 72.12887870862428 H 0.0 **** 0.06
23848 H 88.50641598550688 98.3990461395243 73.09055756272636 H 0.0 **** 0.06
23849 H 88.69169334062748 98.06053507748857 71.35279205101229 H 0.0 **** 0.06
23850 H 87.95673702830024 99.59060320532257 71.88690632553049 H 0.0 **** 0.06
23851 C 33.333539223781486 144.46129373386228 41.06195357217385 C 0.0 **** -0.24
23852 H 33.84937375886375 144.40493325549886 42.02072369205217 H 0.0 **** 0.06
23853 H 34.06007018752149 144.38159611392072 40.25388309003739 H 0.0 **** 0.06
23854 H 32.809208780258984 145.414065579711 40.98741969592098 H 0.0 **** 0.06
23855 H 32.615170827367706 143.64446658918143 40.98775661730818 H 0.0 **** 0.06
23856 C 42.24796425400331 13.893530497529696 32.040990640218695 C 0.0 **** -0.24
23857 H 42.406203931868845 12.854180532470963 32.32902667525883 H 0.0 **** 0.06
23858 H 42.520363293371645 14.024843039077957 30.994333759856033 H 0.0 **** 0.06
23859 H 42.86651793084894 14.54058244304705 32.662751056276704 H 0.0 **** 0.06
23860 H 41.19743950154117 14.15157505200137 32.17945617317065 H 0.0 **** 0.06
23861 C 46.33192884531958 121.81782723088308 116.14812882691616 C 0.0 **** -0.24
23862 H 46.84626887084936 122.0620362879937 117.07803699786227 H 0.0 **** 0.06
23863 H 46.59954664144395 122.54717903208363 115.38305850543797 H 0.0 **** 0.06
23864 H 45.254811942996355 121.84163310666612 116.31286602968375 H 0.0 **** 0.06
23865 H 46.627741042858545 120.82114663279306 115.82081273856467 H 0.0 **** 0.06
23866 C 114.99002754232079 92.92406060303631 79.5111745398771 C 0.0 **** -0.24
23867 H 115.95916568307852 92.4330200834269 79.59178045661804 H 0.0 **** 0.06
23868 H 115.11032610337234 93.88469542478015 79.00911981538846 H 0.0 **** 0.06
23869 H 114.57954935812755 93.08402050141021 80.50861447559205 H 0.0 **** 0.06
23870 H 114.3111231789497 92.29540709318863 78.93627240732555 H 0.0 **** 0.06
23871 C 48.63006474723289 92.2006354051627 94.58867043141015 C 0.0 **** -0.24
23872 H 48.47950873082709 91.2989116547723 93.9963968518918 H 0.0 **** 0.06
23873 H 49.68374803890838 92.47851030632913 94.56706142782735 H 0.0 **** 0.06
23874 H 48.32437789923236 92.01436648505404 95.61748784544253 H 0.0 **** 0.06
23875 H 48.03138347821772 93.01150518532305 94.17278959703185 H 0.0 **** 0.06
23876 C 54.67513700722242 66.05373528735336 88.7021102467788 C 0.0 **** -0.24
23877 H 55.634856006448615 66.41251086660012 88.33068002871008 H 0.0 **** 0.06
23878 H 54.713000194751714 65.97467007747332 89.78942255150167 H 0.0 **** 0.06
23879 H 54.462886203954326 65.07537727267194 88.27307993386799 H 0.0 **** 0.06
23880 H 53.88968958097746 66.75510909715092 88.41600339635178 H 0.0 **** 0.06
23881 C 37.14690358933444 87.69093409077455 132.81207459351765 C 0.0 **** -0.24
23882 H 36.79377605059207 87.41373897219361 131.81937793534865 H 0.0 **** 0.06
23883 H 37.55018179671191 88.7027520939006 132.7845632954487 H 0.0 **** 0.06
23884 H 37.92687230787675 86.99728085377777 133.12630363035697 H 0.0 **** 0.06
23885 H 36.317798733049415 87.64808612994152 133.5173880170993 H 0.0 **** 0.06
23886 C 77.96210197995532 29.191279674520104 66.0123515904685 C 0.0 **** -0.24
23887 H 77.8086697001163 28.91247345987209 64.96982459891862 H 0.0 **** 0.06
23888 H 77.30195550352278 30.02131384305605 66.26777846400192 H 0.0 **** 0.06
23889 H 78.99902082755864 29.492894382183437 66.15906474706588 H 0.0 **** 0.06
23890 H 77.7373799806972 28.338566482636253 66.65300994726802 H 0.0 **** 0.06
23891 C 9.30251525977387 105.27097770030288 116.55482815408999 C 0.0 **** -0.24
23892 H 8.431380923076485 105.73324499257699 117.01832765093093 H 0.0 **** 0.06
23893 H 10.145775992347566 105.31262048462666 117.24531868787892 H 0.0 **** 0.06
23894 H 9.554964617217713 105.80810060300978 115.6402417820949 H 0.0 **** 0.06
23895 H 9.078374501100974 104.23104511903385 116.31668942030092 H 0.0 **** 0.06
23896 C 128.92949494547656 112.82356126963042 54.78922911117252 C 0.0 **** -0.24
23897 H 129.41345525217235 112.44292709398282 53.89041606464454 H 0.0 **** 0.06
23898 H 129.53344625070542 113.62567551533839 55.214488435511896 H 0.0 **** 0.06
23899 H 128.82989969390914 112.01838091409395 55.51687686938291 H 0.0 **** 0.06
23900 H 127.94183028001342 113.20699686611395 54.534424246631005 H 0.0 **** 0.06
23901 C 63.06572073904145 18.873633497902688 60.03759648238395 C 0.0 **** -0.24
23902 H 62.597074590830914 18.6137359192017 60.987352757060364 H 0.0 **** 0.06
23903 H 64.14915637293394 18.821157208917967 60.14139595416259 H 0.0 **** 0.06
23904 H 62.775586396790345 19.8856281356298 59.75534339091274 H 0.0 **** 0.06
23905 H 62.739835915205745 18.174553623959213 59.268342138803746 H 0.0 **** 0.06
23906 C 46.866236317294664 64.52958240818765 33.76252232475858 C 0.0 **** -0.24
23907 H 45.81502144788922 64.37394987046511 34.00523349360942 H 0.0 **** 0.06
23908 H 46.960140630102444 65.37527847144132 33.08216286614545 H 0.0 **** 0.06
23909 H 47.26454191534566 63.633410137517586 33.28645423946824 H 0.0 **** 0.06
23910 H 47.42342792531727 64.73361653608143 34.677425340574615 H 0.0 **** 0.06
23911 C 75.05063852145149 48.2724067935182 135.71423888974246 C 0.0 **** -0.24
23912 H 75.7324754584971 48.612845701398214 136.49483400004516 H 0.0 **** 0.06
23913 H 74.02318951702524 48.4628231893783 136.02298959518282 H 0.0 **** 0.06
23914 H 75.19048277587753 47.20487780226455 135.55089191035682 H 0.0 **** 0.06
23915 H 75.2592542605076 48.81207759537642 134.7902168032041 H 0.0 **** 0.06
23916 C 134.43119894627196 144.97375815674835 14.80117004214226 C 0.0 **** -0.24
23917 H 134.6747636745117 144.32736375494798 13.957647415219746 H 0.0 **** 0.06
23918 H 135.3188392138995 145.53116372506545 15.100253111093153 H 0.0 **** 0.06
23919 H 134.08556221160708 144.36485619663267 15.637035211740745 H 0.0 **** 0.06
23920 H 133.64533222496763 145.67072261360883 14.509514505535606 H 0.0 **** 0.06
23921 C 107.06040579282717 85.43591571065295 52.91437042361264 C 0.0 **** -0.24
23922 H 107.6444996848266 84.79017182399956 52.25747307785983 H 0.0 **** 0.06
23923 H 107.67003554488213 86.28572366090637 53.222957446706886 H 0.0 **** 0.06
23924 H 106.75008593748692 84.87295327429234 53.79426118376924 H 0.0 **** 0.06
23925 H 106.179748441796 85.79471052769362 52.3821216256421 H 0.0 **** 0.06
23926 C 123.31320984820336 36.542669575861055 16.49449997739174 C 0.0 **** -0.24
23927 H 123.46376799348678 35.46758809203811 16.596136461174552 H 0.0 **** 0.06
23928 H 122.50969358125472 36.731367994674144 15.781938786590757 H 0.0 **** 0.06
23929 H 124.2332077477934 37.00464010486968 16.135766080195992 H 0.0 **** 0.06
23930 H 123.04709669499793 36.965101921263965 17.463053830993744 H 0.0 **** 0.06
23931 C 19.435541292012473 32.10149369066872 37.125911004375695 C 0.0 **** -0.24
23932 H 19.69225005960425 31.097636105589828 37.46494562582677 H 0.0 **** 0.06
23933 H 18.796731313114947 32.034317370268894 36.24447120978459 H 0.0 **** 0.06
23934 H 20.347395370557066 32.64282342119665 36.873242902252684 H 0.0 **** 0.06
23935 H 18.907649280565657 32.629094695503355 37.91992868297231 H 0.0 **** 0.06
23936 C 82.0802238708379 31.378613505056364 137.12105207003123 C 0.0 **** -0.24
23937 H 81.67247880181759 32.29757497930967 137.54102780897054 H 0.0 **** 0.06
23938 H 81.48952833985814 31.082081534388124 136.2546639068336 H 0.0 **** 0.06
23939 H 82.04512055608323 30.589068825521736 137.8725684763577 H 0.0 **** 0.06
23940 H 83.11435819400161 31.544793437614373 136.816829464769 H 0.0 **** 0.06
23941 C 141.70854866798555 61.087553480625274 106.74216749482915 C 0.0 **** -0.24
23942 H 142.1101823861287 62.04944803224856 107.06039086286327 H 0.0 **** 0.06
23943 H 142.49479711128873 60.50679575855705 106.26003914899869 H 0.0 **** 0.06
23944 H 140.89272346387727 61.25122182799433 106.03793258112321 H 0.0 **** 0.06
23945 H 141.33519861714473 60.54433172414028 107.61121342568876 H 0.0 **** 0.06
23946 C 21.574236926761813 106.01581870729672 98.31009516644843 C 0.0 **** -0.24
23947 H 21.266809364173554 106.03253636273973 97.26372679010899 H 0.0 **** 0.06
23948 H 22.385758210860388 106.72833326454008 98.46030880901725 H 0.0 **** 0.06
23949 H 21.91571971962088 105.01473999815789 98.57154453825032 H 0.0 **** 0.06
23950 H 20.72948677965823 106.28859233016101 98.94099812750852 H 0.0 **** 0.06
23951 C 4.2883094606771515 115.36780958546883 40.11419018162559 C 0.0 **** -0.24
23952 H 3.440267153069133 114.75753137162643 39.80409885926372 H 0.0 **** 0.06
23953 H 5.165608358295625 114.73277860970494 40.23850917574367 H 0.0 **** 0.06
23954 H 4.056693158296898 115.85745671745782 41.060887883144716 H 0.0 **** 0.06
23955 H 4.489373444389159 116.12294067690151 39.354692861880096 H 0.0 **** 0.06
23956 C 69.16779449814379 77.91978880964251 97.42788321116117 C 0.0 **** -0.24
23957 H 68.13333141499467 77.95273909229701 97.08397280886064 H 0.0 **** 0.06
23958 H 69.18915564616381 77.94786545260848 98.51776042556163 H 0.0 **** 0.06
23959 H 69.70968692030036 78.77737036727888 97.03087904212077 H 0.0 **** 0.06
23960 H 69.63615579171477 77.00014541917125 97.0780166598555 H 0.0 **** 0.06
23961 C 76.35935778879896 7.602662639401917 107.77842923680717 C 0.0 **** -0.24
23962 H 75.38196211476036 7.376422051486596 107.35365901964113 H 0.0 **** 0.06
23963 H 76.23108878266115 8.132461942855638 108.72206350599666 H 0.0 **** 0.06
23964 H 76.92081437204052 8.227928656436475 107.0834710685634 H 0.0 **** 0.06
23965 H 76.90356381740988 6.6746558857185505 107.95336966605893 H 0.0 **** 0.06
23966 C 46.48544837459332 107.78337114078285 98.9313420847566 C 0.0 **** -0.24
23967 H 46.33220710778926 107.70287244072101 97.85543272729866 H 0.0 **** 0.06
23968 H 46.02386242454719 106.92958456461805 99.42836907683177 H 0.0 **** 0.06
23969 H 46.03239823616843 108.70533198409446 99.29614296542314 H 0.0 **** 0.06
23970 H 47.554004413819314 107.7944839430859 99.14569082725006 H 0.0 **** 0.06
23971 C 114.95702077332821 65.49235194902094 120.5482002412293 C 0.0 **** -0.24
23972 H 115.204389352554 66.47936834535354 120.94003356265503 H 0.0 **** 0.06
23973 H 113.88666423950455 65.31651420737458 120.6572135038044 H 0.0 **** 0.06
23974 H 115.50851388549295 64.73311105440531 121.10189191237376 H 0.0 **** 0.06
23975 H 115.2290880376941 65.44257558646764 119.49363178156628 H 0.0 **** 0.06
23976 C 50.551227306418156 36.43505885453198 64.73355311013438 C 0.0 **** -0.24
23977 H 51.21894712849284 35.59684543041938 64.93158940069497 H 0.0 **** 0.06
23978 H 51.021635383740545 37.11452884160193 64.02231355453682 H 0.0 **** 0.06
23979 H 50.3483185863106 36.96640861944954 65.66375814393518 H 0.0 **** 0.06
23980 H 49.61472022863941 36.06293406901253 64.3168822821579 H 0.0 **** 0.06
23981 C 62.549189190363364 104.6948756938925 28.758716016307147 C 0.0 **** -0.24
23982 H 63.464553696051865 104.32316310543226 28.297023999229026 H 0.0 **** 0.06
23983 H 61.715277475579256 104.04750691956401 28.48603699070253 H 0.0 **** 0.06
23984 H 62.35289578458199 105.70867336699008 28.410290907489042 H 0.0 **** 0.06
23985 H 62.66681373420063 104.69977378549792 29.842561666163846 H 0.0 **** 0.06
23986 C 18.94811449038469 58.95286391529537 50.488212918712094 C 0.0 **** -0.24
23987 H 19.75645591361819 58.233455711593805 50.356175464688874 H 0.0 **** 0.06
23988 H 18.156109934058975 58.50431913507667 51.088058121234525 H 0.0 **** 0.06
23989 H 18.549889844097237 59.23496261334772 49.513464561151096 H 0.0 **** 0.06
23990 H 19.330002269764343 59.83871820116343 50.99515352777374 H 0.0 **** 0.06
23991 C 95.40324109502768 70.56619916172947 54.984993234672416 C 0.0 **** -0.24
23992 H 95.87976499718195 69.58557302899949 54.96082079893711 H 0.0 **** 0.06
23993 H 94.92338639056689 70.76050455242526 54.02543406333757 H 0.0 **** 0.06
23994 H 96.15620445265844 71.33085844678287 55.176179690699584 H 0.0 **** 0.06
23995 H 94.6552667341291 70.58637617222776 55.777321525629404 H 0.0 **** 0.06
23996 C 38.848741860773714 90.98458447548123 55.67770802903662 C 0.0 **** -0.24
23997 H 39.24450012270643 91.46834090440673 54.783918863052136 H 0.0 **** 0.06
23998 H 38.103419598501944 90.24429300977145 55.38917361131752 H 0.0 **** 0.06
23999 H 38.38806043772695 91.73345130356363 56.32206352249223 H 0.0 **** 0.06
24000 H 39.661126244930756 90.49419092032966 56.213295216302754 H 0.0 **** 0.06
24001 C 63.9848998582773 20.58468021408146 101.41045974003177 C 0.0 **** -0.24
24002 H 64.3456071237648 21.573070726542426 101.126061513189 H 0.0 **** 0.06
24003 H 62.899727758528996 20.60746606479148 101.50526043511402 H 0.0 **** 0.06
24004 H 64.4273621657133 20.297430097758195 102.36494306987768 H 0.0 **** 0.06
24005 H 64.26825447056363 19.86089483642064 100.64596395238411 H 0.0 **** 0.06
24006 C 29.79478372157871 144.1674533971032 135.6951338896268 C 0.0 **** -0.24
24007 H 30.321892224654277 145.0687837110061 136.01060537826123 H 0.0 **** 0.06
24008 H 28.971996326196006 144.44111301143312 135.03544595716176 H 0.0 **** 0.06
24009 H 29.40328181584806 143.65063525968583 136.57152545832372 H 0.0 **** 0.06
24010 H 30.48502451234441 143.5110294913486 135.16421652223687 H 0.0 **** 0.06
24011 C 118.92156666638718 144.91880618068654 133.0014723584128 C 0.0 **** -0.24
24012 H 119.3066510196592 143.95156328082237 132.68055328026844 H 0.0 **** 0.06
24013 H 119.19705564594611 145.67979659768883 132.27022317057356 H 0.0 **** 0.06
24014 H 119.3474051081752 145.17562000806697 133.97162863094448 H 0.0 **** 0.06
24015 H 117.83602901067096 144.86905524570108 133.08272327374982 H 0.0 **** 0.06
24016 C 13.190871131710551 78.28455031163598 131.71257097900835 C 0.0 **** -0.24
24017 H 13.88775197110786 79.07661559121496 131.4382398064799 H 0.0 **** 0.06
24018 H 13.730181379200445 77.34068073566596 131.7974097298848 H 0.0 **** 0.06
24019 H 12.42073416046896 78.19620282828397 130.94763661967613 H 0.0 **** 0.06
24020 H 12.72650214354168 78.52545067006353 132.66936426975965 H 0.0 **** 0.06
24021 C 44.58921611628355 52.50938440806924 91.99897803112722 C 0.0 **** -0.24
24022 H 43.8810968425624 52.24847003046159 92.7858908001548 H 0.0 **** 0.06
24023 H 45.32572026146558 51.711280721852916 91.89481882262471 H 0.0 **** 0.06
24024 H 45.09483353461813 53.43868861717341 92.26040983443465 H 0.0 **** 0.06
24025 H 44.05618439261352 52.63737061120844 91.05796659750189 H 0.0 **** 0.06
24026 C 0.4755485189630839 60.737243654781 65.00396903986794 C 0.0 **** -0.24
24027 H 0.6591009316252361 60.23647295170136 65.95391538410959 H 0.0 **** 0.06
24028 H -0.35037037912893965 61.43950217029203 65.11733504071626 H 0.0 **** 0.06
24029 H 0.22055563836386582 59.996442186111125 64.24580894221484 H 0.0 **** 0.06
24030 H 1.3719477660040305 61.276370219518554 64.698608917515 H 0.0 **** 0.06
24031 C 18.808311208890046 76.26019834966166 81.73366119897112 C 0.0 **** -0.24
24032 H 19.14588080168393 77.27413229244956 81.94819936216575 H 0.0 **** 0.06
24033 H 19.66297511951467 75.6431721580712 81.45720658569871 H 0.0 **** 0.06
24034 H 18.09421135107823 76.283124162597 80.90918270350244 H 0.0 **** 0.06
24035 H 18.327683527159195 75.84228603058216 82.61829854128553 H 0.0 **** 0.06
24036 C 24.880820058855534 106.33413494987332 34.455364649595026 C 0.0 **** -0.24
24037 H 24.78121621614882 106.67385577805743 33.42379022674319 H 0.0 **** 0.06
24038 H 24.67909123197549 107.16503652421136 35.131889578995725 H 0.0 **** 0.06
24039 H 25.894485536102508 105.96896278217935 34.620232725071816 H 0.0 **** 0.06
24040 H 24.169976977774184 105.52997332149971 34.64236474399701 H 0.0 **** 0.06
24041 C 54.699558687547196 35.294255576442744 41.116413558991425 C 0.0 **** -0.24
24042 H 54.98456579483501 36.05877792454541 40.3937203873148 H 0.0 **** 0.06
24043 H 53.75145639304861 35.568465814928466 41.579935637616174 H 0.0 **** 0.06
24044 H 55.47038820994881 35.21588911215268 41.88354162638359 H 0.0 **** 0.06
24045 H 54.59274037359066 34.336154303462884 40.60863441815394 H 0.0 **** 0.06
24046 C 82.47312470612074 37.466400555332854 39.53248184677733 C 0.0 **** -0.24
24047 H 83.40622184463749 36.97520477304133 39.258435712371835 H 0.0 **** 0.06
24048 H 82.64209884890444 38.539849183362406 39.62718534827263 H 0.0 **** 0.06
24049 H 82.11819698752122 37.06977826049345 40.48320679391236 H 0.0 **** 0.06
24050 H 81.72551538353387 37.28255612433958 38.75983736702355 H 0.0 **** 0.06
24051 C 59.16373460867254 135.27201668647737 98.84033029333165 C 0.0 **** -0.24
24052 H 59.23523710527246 134.56228250905713 98.01658539609275 H 0.0 **** 0.06
24053 H 59.29326772312572 136.2850088762764 98.45817073197676 H 0.0 **** 0.06
24054 H 59.94090169132585 135.0574351377226 99.57346326590034 H 0.0 **** 0.06
24055 H 58.184751431061045 135.1837344455748 99.31199023957635 H 0.0 **** 0.06
24056 C 80.93800257016402 41.477235573800925 134.67103825854238 C 0.0 **** -0.24
24057 H 81.60238747036396 41.09050207537368 133.89862141514269 H 0.0 **** 0.06
24058 H 80.14491555681754 42.06478801527493 134.20652873662243 H 0.0 **** 0.06
24059 H 81.5060405182865 42.10857477132822 135.35488154346373 H 0.0 **** 0.06
24060 H 80.49961819701464 40.64667257050155 135.22287615787863 H 0.0 **** 0.06
24061 C 25.3024418531447 105.90582454694068 10.170036660255704 C 0.0 **** -0.24
24062 H 25.482800441942658 105.1432307414496 9.411617636860882 H 0.0 **** 0.06
24063 H 25.06699802788006 105.42447781677369 11.119085876428755 H 0.0 **** 0.06
24064 H 24.466443740805317 106.53361345505293 9.861896865188015 H 0.0 **** 0.06
24065 H 26.19592828218734 106.52003272326785 10.28543704129413 H 0.0 **** 0.06
24066 C 67.97687149527712 100.42178468036427 12.631703361351086 C 0.0 **** -0.24
24067 H 68.09798385519909 101.3482582384376 13.193087759080356 H 0.0 **** 0.06
24068 H 68.9224696355546 100.1564180464921 12.159175486537187 H 0.0 **** 0.06
24069 H 67.21295894862935 100.5585279895695 11.86623305532465 H 0.0 **** 0.06
24070 H 67.6721756436358 99.62411868702083 13.30985477267894 H 0.0 **** 0.06
24071 C 7.648231890454866 101.75475503277221 11.53237920872806 C 0.0 **** -0.24
24072 H 6.774194513651395 101.30260449252125 12.000845256535172 H 0.0 **** 0.06
24073 H 7.832713885112696 102.73283275590586 11.977346940364157 H 0.0 **** 0.06
24074 H 7.468866130672666 101.86943556971778 10.463717352599986 H 0.0 **** 0.06
24075 H 8.515531668720087 101.11422374434176 11.68914532199392 H 0.0 **** 0.06
24076 C 28.055570525009045 23.237349234907526 110.72868123923479 C 0.0 **** -0.24
24077 H 27.845150025718453 22.842431250408254 111.72223036420621 H 0.0 **** 0.06
24078 H 29.0896712818614 23.58227448476225 110.68639434403406 H 0.0 **** 0.06
24079 H 27.385324920370067 24.07149733257478 110.51948107818606 H 0.0 **** 0.06
24080 H 27.903374413724066 22.453855260495743 109.98644985695898 H 0.0 **** 0.06
24081 C 81.55633099450674 87.94070324361547 88.2600490632849 C 0.0 **** -0.24
24082 H 80.82736414606467 87.28725141533738 88.7408743986997 H 0.0 **** 0.06
24083 H 81.69072321180192 88.84003155632769 88.8623424138716 H 0.0 **** 0.06
24084 H 81.19700526939093 88.21682776956254 87.26874579827302 H 0.0 **** 0.06
24085 H 82.50811103285687 87.41815277451298 88.16868371503745 H 0.0 **** 0.06
24086 C 90.18421781415131 39.74406561298275 90.93507403731067 C 0.0 **** -0.24
24087 H 90.07995674370156 40.56714697939903 90.22690127176769 H 0.0 **** 0.06
24088 H 89.26688690236247 39.15447323802397 90.94372121004808 H 0.0 **** 0.06
24089 H 90.3687382187382 40.14332347913063 91.93151128878868 H 0.0 **** 0.06
24090 H 91.02025376014035 39.11159354095474 90.63619968193335 H 0.0 **** 0.06
24091 C 75.04242322514312 125.9884727761914 66.75552734440609 C 0.0 **** -0.24
24092 H 74.95420982609767 125.02750768998649 66.24994516414827 H 0.0 **** 0.06
24093 H 74.19672216774109 126.1231208372154 67.4301483735411 H 0.0 **** 0.06
24094 H 75.04705494752022 126.78889928554005 66.0149350855913 H 0.0 **** 0.06
24095 H 75.9711357432418 126.01560119823776 67.3253079993236 H 0.0 **** 0.06
24096 C 36.81978016554109 8.896623462413345 95.67949584469586 C 0.0 **** -0.24
24097 H 35.782594027921476 9.039621723749747 95.3729450328756 H 0.0 **** 0.06
24098 H 37.252945293486036 9.859022826953264 95.95469285765809 H 0.0 **** 0.06
24099 H 37.38517372670583 8.465389653921989 94.85408360286459 H 0.0 **** 0.06
24100 H 36.85486546724226 8.223662242053877 96.53634887921663 H 0.0 **** 0.06
24101 C 89.01172298189306 79.37579397721588 78.63017372651177 C 0.0 **** -0.24
24102 H 89.28484433214282 78.46639303572536 79.16522469845584 H 0.0 **** 0.06
24103 H 88.15792485370275 79.84320459123634 79.12111362762296 H 0.0 **** 0.06
24104 H 88.74931688254696 79.12795695487878 77.6018757506198 H 0.0 **** 0.06
24105 H 89.8550475760095 80.06711335951213 78.6337906334379 H 0.0 **** 0.06
24106 C 60.81896850040316 72.0108615731908 31.076386548354094 C 0.0 **** -0.24
24107 H 60.642455964091496 73.08131759691864 30.974063061178924 H 0.0 **** 0.06
24108 H 60.12230092898524 71.46482820975879 30.43961359382257 H 0.0 **** 0.06
24109 H 60.67061466843688 71.71521453901235 32.11500913156402 H 0.0 **** 0.06
24110 H 61.84236966891082 71.78113718023243 30.776077133938315 H 0.0 **** 0.06
24111 C 23.61295578394453 138.16130101381464 78.63211959209804 C 0.0 **** -0.24
24112 H 23.883271220298127 137.46534303497958 79.42679310324063 H 0.0 **** 0.06
24113 H 22.656315318402335 137.86707594748225 78.20146487341314 H 0.0 **** 0.06
24114 H 24.380423799170615 138.1444699223549 77.8586239981682 H 0.0 **** 0.06
24115 H 23.53289338789091 139.16772292253182 79.04346235439478 H 0.0 **** 0.06
24116 C 108.20992654745733 99.29180434312708 86.82809252672418 C 0.0 **** -0.24
24117 H 108.31311754515924 99.10014930657609 85.76063488986131 H 0.0 **** 0.06
24118 H 108.04315157797403 100.35720657974316 86.99120335187729 H 0.0 **** 0.06
24119 H 109.11970016811837 98.98317140624587 87.34229728451285 H 0.0 **** 0.06
24120 H 107.3624263836269 98.72722027021018 87.21819538615114 H 0.0 **** 0.06
24121 C 117.79616814226385 11.773872206860375 138.53290571760493 C 0.0 **** -0.24
24122 H 118.69613824257978 12.349845794222716 138.31728766376798 H 0.0 **** 0.06
24123 H 117.69896648264934 10.96694233663814 137.80654910984615 H 0.0 **** 0.06
24124 H 116.92429611341505 12.424653033293623 138.4726284991436 H 0.0 **** 0.06
24125 H 117.8670164542656 11.353560746075317 139.53646873026872 H 0.0 **** 0.06
24126 C 120.54286577095797 23.393018847887333 132.80933579725388 C 0.0 **** -0.24
24127 H 120.94253494671483 24.40568302296535 132.86696160933548 H 0.0 **** 0.06
24128 H 120.26723022371084 23.05363468898497 133.80741109482972 H 0.0 **** 0.06
24129 H 121.29920833062516 22.727567787872403 132.39487512065824 H 0.0 **** 0.06
24130 H 119.66137206864573 23.38672149571144 132.16690979690142 H 0.0 **** 0.06
24131 C 64.64924867345715 47.69768015876811 91.0614377493569 C 0.0 **** -0.24
24132 H 65.40465195274342 47.300086475724356 90.38379401026779 H 0.0 **** 0.06
24133 H 64.43358043823767 46.962114064333946 91.83658137685048 H 0.0 **** 0.06
24134 H 63.739688493520305 47.91610962298023 90.50291765609091 H 0.0 **** 0.06
24135 H 65.02203117644322 48.61330880573141 91.52178906474327 H 0.0 **** 0.06
24136 C 143.79040161487472 71.29705373261689 67.72913490226152 C 0.0 **** -0.24
24137 H 143.3474380223405 70.47382946104909 68.2905367136421 H 0.0 **** 0.06
24138 H 143.0191586558475 72.03146981788498 67.49292675219505 H 0.0 **** 0.06
24139 H 144.22405606241406 70.91506611291291 66.80525712379378 H 0.0 **** 0.06
24140 H 144.56865230256184 71.76794352762721 68.3286526326422 H 0.0 **** 0.06
24141 C 110.69502828729674 116.52536053504873 57.960702278962174 C 0.0 **** -0.24
24142 H 110.99868745685876 117.31849675115937 57.277651083158815 H 0.0 **** 0.06
24143 H 111.10194205687367 115.5745428412702 57.6182015592959 H 0.0 **** 0.06
24144 H 109.60633135912991 116.46727916081274 57.98722590921895 H 0.0 **** 0.06
24145 H 111.07132589355979 116.74339636954635 58.96043644607997 H 0.0 **** 0.06
24146 C 101.8953140098517 87.49321920385012 133.64440819499524 C 0.0 **** -0.24
24147 H 101.88574408877594 87.8029132034622 132.5994292792174 H 0.0 **** 0.06
24148 H 102.80135745286876 86.92005289166303 133.84495899200496 H 0.0 **** 0.06
24149 H 101.02145471953662 86.8753007048177 133.84895532977913 H 0.0 **** 0.06
24150 H 101.8749636758477 88.3750769952826 134.2850997093558 H 0.0 **** 0.06
24151 C 135.04209573354325 106.8131618499997 30.972081573956615 C 0.0 **** -0.24
24152 H 134.34796828257743 106.65273080545687 31.796917830194616 H 0.0 **** 0.06
24153 H 134.77379593526024 106.16249510541236 30.139285117985224 H 0.0 **** 0.06
24154 H 136.05559518766927 106.58396433932906 31.301056112157937 H 0.0 **** 0.06
24155 H 134.99134462740304 107.85404286974456 30.651811460878264 H 0.0 **** 0.06
24156 C 142.83212114958678 85.13417713008617 2.409647009421917 C 0.0 **** -0.24
24157 H 143.36697776516678 84.75009980063352 3.277614089459007 H 0.0 **** 0.06
24158 H 141.7627945580407 85.15515965519067 2.621517962283292 H 0.0 **** 0.06
24159 H 143.02063279229435 84.4887082160881 1.5522182338231687 H 0.0 **** 0.06
24160 H 143.1782938890895 86.14370587575817 2.1870867689941633 H 0.0 **** 0.06
24161 C 143.78057504394738 79.84481287969191 79.74514669076333 C 0.0 **** -0.24
24162 H 143.55798438604623 80.77795285901033 79.22870983455158 H 0.0 **** 0.06
24163 H 142.9463170779097 79.58139413447726 80.39568656499742 H 0.0 **** 0.06
24164 H 144.68397870242305 79.96593828554694 80.34223238662045 H 0.0 **** 0.06
24165 H 143.9337882947669 79.0520608072494 79.01281087018279 H 0.0 **** 0.06
24166 C 44.0210627521389 57.76281742759498 74.83679152878965 C 0.0 **** -0.24
24167 H 43.95825020346345 58.84919295045843 74.7772206788897 H 0.0 **** 0.06
24168 H 45.03683848202843 57.470837469347416 75.10532888817718 H 0.0 **** 0.06
24169 H 43.76162181503463 57.32952422006868 73.87100621133266 H 0.0 **** 0.06
24170 H 43.326534857165086 57.400323125347384 75.59535716734834 H 0.0 **** 0.06
24171 C 27.628288246565717 139.80061034785416 91.96937070829408 C 0.0 **** -0.24
24172 H 27.283433651225778 139.5814462808452 90.95866188120435 H 0.0 **** 0.06
24173 H 28.692083095125838 139.57553586030735 92.04701027484586 H 0.0 **** 0.06
24174 H 27.07360275509825 139.18930833535586 92.68218682158175 H 0.0 **** 0.06
24175 H 27.46225624156301 140.8546177008125 92.1880455620284 H 0.0 **** 0.06
24176 C 98.78117493332859 101.01323600969295 36.391041889654346 C 0.0 **** -0.24
24177 H 99.04488905048994 100.02953410678094 36.77939523907477 H 0.0 **** 0.06
24178 H 99.68733583967447 101.5428576260436 36.097010852533884 H 0.0 **** 0.06
24179 H 98.26169012870184 101.5814069453387 37.16204589716253 H 0.0 **** 0.06
24180 H 98.13027349496967 100.89793670474694 35.52390503841525 H 0.0 **** 0.06
24181 C 50.8754508376832 66.69827943327638 107.13634372671856 C 0.0 **** -0.24
24182 H 49.98205187456584 66.50704570622734 106.54174734396213 H 0.0 **** 0.06
24183 H 50.594492432984296 67.1893573220375 108.06803561800041 H 0.0 **** 0.06
24184 H 51.55305595813806 67.34224218155265 106.5761034580205 H 0.0 **** 0.06
24185 H 51.37284340824402 65.75429987048693 107.35874000783826 H 0.0 **** 0.06
24186 C 3.519226010572197 131.47044380649314 21.657941505524462 C 0.0 **** -0.24
24187 H 2.7909407889006275 131.99839903028362 21.042265602190554 H 0.0 **** 0.06
24188 H 3.4265301521630818 130.39766274489898 21.49026877455978 H 0.0 **** 0.06
24189 H 3.3332278792948955 131.69213898205808 22.70865023042296 H 0.0 **** 0.06
24190 H 4.524556848997349 131.7962449646758 21.389508196125973 H 0.0 **** 0.06
24191 C 95.47941961433528 129.70657211779823 22.200890091416994 C 0.0 **** -0.24
24192 H 95.85167917136963 128.73796517344508 22.535396191220286 H 0.0 **** 0.06
24193 H 94.76704267275383 129.56090753809247 21.388435877700488 H 0.0 **** 0.06
24194 H 96.3130346621887 130.31379435460195 21.848224528407286 H 0.0 **** 0.06
24195 H 94.9867658576232 130.21311228131233 23.030489518843865 H 0.0 **** 0.06
24196 C 87.14262867197814 30.124239625674562 31.204929365328567 C 0.0 **** -0.24
24197 H 86.07911480993418 29.88936033071098 31.259618736527102 H 0.0 **** 0.06
24198 H 87.65624414982443 29.34948931592657 30.635972442940016 H 0.0 **** 0.06
24199 H 87.5567098516198 30.170081631657233 32.21269582125299 H 0.0 **** 0.06
24200 H 87.27748420079487 31.087370859672653 30.7127128396954 H 0.0 **** 0.06
24201 C 61.83091245567945 80.25703526224432 105.1148878171415 C 0.0 **** -0.24
24202 H 61.10067414212935 80.9355217975612 104.67466299716978 H 0.0 **** 0.06
24203 H 62.352556998296535 80.76178511904213 105.92852316787167 H 0.0 **** 0.06
24204 H 62.5509388785629 79.95421079897062 104.354942311331 H 0.0 **** 0.06
24205 H 61.31968643683072 79.37608415261772 105.50271378956182 H 0.0 **** 0.06
24206 C 76.75682187177503 91.70265598107127 35.571393587909256 C 0.0 **** -0.24
24207 H 75.66834322515751 91.64003711006808 35.56792426418957 H 0.0 **** 0.06
24208 H 77.17925548238837 90.70919854616699 35.417923383687764 H 0.0 **** 0.06
24209 H 77.09559570805808 92.0983314729431 36.529071563867205 H 0.0 **** 0.06
24210 H 77.0839741235485 92.36425463672586 34.768770665097406 H 0.0 **** 0.06
24211 C 93.15145830115546 111.23506388447198 77.71241482044726 C 0.0 **** -0.24
24212 H 93.09754284722578 111.81741199474494 76.7925073762679 H 0.0 **** 0.06
24213 H 92.86232196458752 111.86066340434887 78.55704866312509 H 0.0 **** 0.06
24214 H 94.17183319671972 110.8796541090271 77.85659133613333 H 0.0 **** 0.06
24215 H 92.47558954078136 110.38272697219007 77.64259286616361 H 0.0 **** 0.06
24216 C 125.11022341771773 84.83887689360768 15.792956699734788 C 0.0 **** -0.24
24217 H 125.07358197482327 85.66748045227118 16.500109044556467 H 0.0 **** 0.06
24218 H 126.0607187707063 84.85750302582738 15.261149890598546 H 0.0 **** 0.06
24219 H 124.29158527441528 84.93458460556516 15.0793408778039 H 0.0 **** 0.06
24220 H 125.01388931695334 83.89688320766444 16.333191417102768 H 0.0 **** 0.06
24221 C 129.9545265567548 62.29641081741241 105.73924957420238 C 0.0 **** -0.24
24222 H 129.1730120208658 61.79567221045161 105.16729258495096 H 0.0 **** 0.06
24223 H 130.22006796985332 61.68639361803018 106.60335125996633 H 0.0 **** 0.06
24224 H 129.5914309916206 63.26715830738809 106.07791142873756 H 0.0 **** 0.06
24225 H 130.83254535908657 62.437045838407215 105.10966985345985 H 0.0 **** 0.06
24226 C 120.74017114940118 51.11579275743654 114.29681031612594 C 0.0 **** -0.24
24227 H 119.79996886494983 50.74870587110813 114.70728777018783 H 0.0 **** 0.06
24228 H 121.33675014255842 51.558374715262204 115.09574504338806 H 0.0 **** 0.06
24229 H 120.53592562482187 51.86835001293146 113.53477930127067 H 0.0 **** 0.06
24230 H 121.28980257851937 50.286507035912734 113.85003919136832 H 0.0 **** 0.06
24231 C 63.206170810881304 105.31885114820211 87.15361537541783 C 0.0 **** -0.24
24232 H 63.93980063223117 104.52705365156707 87.3042603054516 H 0.0 **** 0.06
24233 H 63.50469998740968 106.20174913679178 87.72035380185373 H 0.0 **** 0.06
24234 H 62.23002503880477 104.9786937330372 87.49850990356578 H 0.0 **** 0.06
24235 H 63.151631022781004 105.56758695990119 86.09476188567899 H 0.0 **** 0.06
24236 C 137.22234423468453 103.93314946262868 137.71726962782284 C 0.0 **** -0.24
24237 H 136.40220930382418 103.77387461054994 138.41750681813127 H 0.0 **** 0.06
24238 H 138.15897428367384 104.01716901240053 138.2686041649751 H 0.0 **** 0.06
24239 H 137.04687601673152 104.85141817273937 137.1564957044163 H 0.0 **** 0.06
24240 H 137.279180905652 103.09187432684551 137.02711558737354 H 0.0 **** 0.06
24241 C 60.84770190653656 82.68339464604381 27.93856226714486 C 0.0 **** -0.24
24242 H 60.16402445276326 81.83914995259076 27.847892837101227 H 0.0 **** 0.06
24243 H 61.168033001197344 82.78142249282453 28.97583196666826 H 0.0 **** 0.06
24244 H 60.340750639896896 83.59595802378715 27.626159707694285 H 0.0 **** 0.06
24245 H 61.71758976964385 82.5149729583242 27.30312921038157 H 0.0 **** 0.06
24246 C 58.314873858692664 13.019897914951379 84.7774925894018 C 0.0 **** -0.24
24247 H 58.97037732180405 12.435567231809962 85.42406416793642 H 0.0 **** 0.06
24248 H 57.283459731544625 12.913328440716008 85.11587966174244 H 0.0 **** 0.06
24249 H 58.40147087781115 12.659188687017554 83.7524546804521 H 0.0 **** 0.06
24250 H 58.604527653178124 14.069857473358546 84.82005433868395 H 0.0 **** 0.06
24251 C 33.75468309294082 6.19049812091367 11.05963491977326 C 0.0 **** -0.24
24252 H 33.14723475634928 6.241000775936001 11.962731733002727 H 0.0 **** 0.06
24253 H 33.4430244989635 5.334698375813673 10.460319777512154 H 0.0 **** 0.06
24254 H 34.80393721560468 6.080791867864249 11.332310893130568 H 0.0 **** 0.06
24255 H 33.62317794771311 7.105490778322302 10.481400743006134 H 0.0 **** 0.06
24256 C 74.78869013668587 26.387018742170206 78.36907244909989 C 0.0 **** -0.24
24257 H 75.78760780443348 26.796989234716982 78.51681739465472 H 0.0 **** 0.06
24258 H 74.46725914283438 26.57318158384212 77.34343679856555 H 0.0 **** 0.06
24259 H 74.09428637103065 26.86438981525601 79.06017457451655 H 0.0 **** 0.06
24260 H 74.80607926799377 25.313133745729537 78.55506580903534 H 0.0 **** 0.06
24261 C 50.074103130794754 43.025336908876 113.3046985722356 C 0.0 **** -0.24
24262 H 50.083829794471114 43.86820106379491 113.99642347702721 H 0.0 **** 0.06
24263 H 49.595010902303045 42.1702604147423 113.781868074772 H 0.0 **** 0.06
24264 H 51.09786450748021 42.76468580802515 113.0353984363995 H 0.0 **** 0.06
24265 H 49.520102997320066 43.29920001528785 112.40772049172679 H 0.0 **** 0.06
24266 C 37.62122790811351 6.476241250305577 91.85425473728829 C 0.0 **** -0.24
24267 H 37.769828363588644 7.547724300987994 91.72083859566416 H 0.0 **** 0.06
24268 H 37.19119907284658 6.2903324877090085 92.83917051658571 H 0.0 **** 0.06
24269 H 38.57955021338121 5.963444933583389 91.77358143205231 H 0.0 **** 0.06
24270 H 36.9434456254133 6.105604521940478 91.08504897552821 H 0.0 **** 0.06
24271 C 142.48273021460102 63.761873225566305 126.61506718377325 C 0.0 **** -0.24
24272 H 142.6425601702229 63.2257878737218 127.55067916852283 H 0.0 **** 0.06
24273 H 142.06710786300448 63.07927357644198 125.87203367619543 H 0.0 **** 0.06
24274 H 143.43318414252298 64.15536824379593 126.25492708715348 H 0.0 **** 0.06
24275 H 141.78846367012062 64.58398086141909 126.78146966428471 H 0.0 **** 0.06
24276 C 63.92652923431082 12.287980175189858 40.81909791388847 C 0.0 **** -0.24
24277 H 64.18597878688927 11.289514472066514 41.1699953833688 H 0.0 **** 0.06
24278 H 64.23053050816772 12.397974336773899 39.778249991943426 H 0.0 **** 0.06
24279 H 64.43991075464669 13.032195411069893 41.42842542816649 H 0.0 **** 0.06
24280 H 62.84885198172982 12.432494215967466 40.90082529498683 H 0.0 **** 0.06
24281 C 128.92572402738568 141.05183575055023 90.31296327625722 C 0.0 **** -0.24
24282 H 129.48082379190635 140.12451526667138 90.45073780824708 H 0.0 **** 0.06
24283 H 127.95977567275156 140.8320584448728 89.85589358437346 H 0.0 **** 0.06
24284 H 129.49147068333514 141.7210113037432 89.66589942376186 H 0.0 **** 0.06
24285 H 128.76902490557598 141.52786859828163 91.28080107230659 H 0.0 **** 0.06
24286 C 104.39016374998675 141.1834324252356 73.99930087997978 C 0.0 **** -0.24
24287 H 105.41445667256045 141.4687658809278 73.7576094160857 H 0.0 **** 0.06
24288 H 103.6964597423401 141.82682937977953 73.45876413482003 H 0.0 **** 0.06
24289 H 104.22734665010736 141.29202776689368 75.0717166352799 H 0.0 **** 0.06
24290 H 104.22522495917238 140.14593230880973 73.71050761043574 H 0.0 **** 0.06
24291 C 57.95408606087882 122.01863502676714 109.52052982680057 C 0.0 **** -0.24
24292 H 57.09684212769643 122.6250188496055 109.22768446717596 H 0.0 **** 0.06
24293 H 58.14294996568532 122.14714739580772 110.58636090925161 H 0.0 **** 0.06
24294 H 58.831114797869816 122.33406176130624 108.9553214869551 H 0.0 **** 0.06
24295 H 57.745092477930854 120.96949344124236 109.31205560613923 H 0.0 **** 0.06
24296 C 25.953252884938067 79.01336422080433 32.47374555212188 C 0.0 **** -0.24
24297 H 26.637604876455555 79.85577495623018 32.368762501917374 H 0.0 **** 0.06
24298 H 26.099784131200764 78.3211026452101 31.643532036187786 H 0.0 **** 0.06
24299 H 24.925837088638097 79.3763901888827 32.46712781775258 H 0.0 **** 0.06
24300 H 26.151980430431337 78.49972234845207 33.41457779158135 H 0.0 **** 0.06
24301 C 42.755603851125045 59.08244837673837 49.82506389868203 C 0.0 **** -0.24
24302 H 42.09950041406185 59.28834014390512 50.67029861212099 H 0.0 **** 0.06
24303 H 42.178819843271896 58.62222282434402 49.02198569372794 H 0.0 **** 0.06
24304 H 43.54853806547655 58.404033394126174 50.13804519064132 H 0.0 **** 0.06
24305 H 43.19320147914128 60.01504187161126 49.46927242474831 H 0.0 **** 0.06
24306 C 72.62924962554865 137.67838590903983 86.13654789761321 C 0.0 **** -0.24
24307 H 72.74695093584548 138.67885710353744 86.55194849253965 H 0.0 **** 0.06
24308 H 71.58334743784192 137.51447514053828 85.87455204326261 H 0.0 **** 0.06
24309 H 72.93818063102808 136.940332274777 86.87764601485841 H 0.0 **** 0.06
24310 H 73.24752624253455 137.5794998861388 85.24485039564726 H 0.0 **** 0.06
24311 C 51.26798595484712 2.12729078984313 69.2120190547407 C 0.0 **** -0.24
24312 H 50.83553380086488 1.5901487117873785 68.36812545893883 H 0.0 **** 0.06
24313 H 52.31373050299442 1.842743071409302 69.32784576311641 H 0.0 **** 0.06
24314 H 50.71977433461865 1.8765209768644695 70.12124812645752 H 0.0 **** 0.06
24315 H 51.20002293028426 3.2002807576118357 69.03240987782402 H 0.0 **** 0.06
24316 C 93.33235824433902 0.5492290210506567 21.965558984086698 C 0.0 **** -0.24
24317 H 93.09944972401522 1.581656971436452 22.22738730818017 H 0.0 **** 0.06
24318 H 93.28226639916633 -0.07221593390154979 22.860347744593895 H 0.0 **** 0.06
24319 H 94.33585101469603 0.4984779109025155 21.542936830619084 H 0.0 **** 0.06
24320 H 92.61095124955591 0.18897129415197966 21.231967663119747 H 0.0 **** 0.06
24321 C 138.69084181349731 137.83665109777246 57.81485589732375 C 0.0 **** -0.24
24322 H 138.38540981711787 137.6056495539982 56.79414658705798 H 0.0 **** 0.06
24323 H 139.7692217045042 137.7055868294368 57.908182714145255 H 0.0 **** 0.06
24324 H 138.18164670390658 137.16594331085471 58.50695726467859 H 0.0 **** 0.06
24325 H 138.42712251421943 138.86777704206474 58.048625623073235 H 0.0 **** 0.06
24326 C 93.12570883993448 90.53475954059812 135.55667102195287 C 0.0 **** -0.24
24327 H 92.63000208755255 90.59635697234222 134.58834802434632 H 0.0 **** 0.06
24328 H 94.11202430099837 90.08701355037542 135.43215890883948 H 0.0 **** 0.06
24329 H 92.52928166191981 89.91968581773621 136.23158353208873 H 0.0 **** 0.06
24330 H 93.23084342366366 91.53555300177321 135.9751839253653 H 0.0 **** 0.06
24331 C 134.34771648239803 102.40273796647794 75.4037616210359 C 0.0 **** -0.24
24332 H 134.54755971939878 101.37575632041988 75.70962806121412 H 0.0 **** 0.06
24333 H 133.9326002291064 102.40647802555361 74.39601095958204 H 0.0 **** 0.06
24334 H 135.27696738836875 102.97192466991191 75.41645519016083 H 0.0 **** 0.06
24335 H 133.63452596894533 102.85390054130879 76.09307467455756 H 0.0 **** 0.06
24336 C 84.71350224920889 71.02165290080212 119.54598124195064 C 0.0 **** -0.24
24337 H 85.16694343953878 70.3637058091411 120.28756847438575 H 0.0 **** 0.06
24338 H 84.0778275236512 71.75080789904051 120.04665624130683 H 0.0 **** 0.06
24339 H 84.11339385443574 70.42930452975232 118.85500350443056 H 0.0 **** 0.06
24340 H 85.49737949152751 71.53991329791721 118.9928668188142 H 0.0 **** 0.06
24341 C 109.50650064385201 94.92864537028771 40.745407171400075 C 0.0 **** -0.24
24342 H 110.44376427888528 95.3797167942993 41.07364552037478 H 0.0 **** 0.06
24343 H 109.50667250822971 93.86788039983551 40.995452224807025 H 0.0 **** 0.06
24344 H 109.40548950478905 95.04775159626371 39.66658866993345 H 0.0 **** 0.06
24345 H 108.67320110449509 95.42079242664587 41.24504600847973 H 0.0 **** 0.06
24346 C 67.73383655443547 124.96093933276086 19.47829663779423 C 0.0 **** -0.24
24347 H 67.07536694410885 125.72272802900414 19.060687179458284 H 0.0 **** 0.06
24348 H 68.67315927996589 125.42158032526828 19.786716249540703 H 0.0 **** 0.06
24349 H 67.93267858376117 124.20010531901653 18.72349113378749 H 0.0 **** 0.06
24350 H 67.25495269141186 124.4993933926404 20.341134648283514 H 0.0 **** 0.06
24351 C 52.294189173308695 108.44972259284599 2.358604217909061 C 0.0 **** -0.24
24352 H 51.40087510723683 108.80315915909306 1.8445901837699807 H 0.0 **** 0.06
24353 H 52.30156097370062 107.36014355308758 2.366156289599701 H 0.0 **** 0.06
24354 H 52.293663862078006 108.82013868408278 3.3840434249866007 H 0.0 **** 0.06
24355 H 53.180366600780616 108.81596748747991 1.8404313375744437 H 0.0 **** 0.06
24356 C 141.9522926962266 49.43954022416 138.51149431971888 C 0.0 **** -0.24
24357 H 140.87277676540964 49.29967229303213 138.47416959434835 H 0.0 **** 0.06
24358 H 142.4337018986028 48.48954672561257 138.7478256888753 H 0.0 **** 0.06
24359 H 142.19773911001806 50.172062069784886 139.28113628009788 H 0.0 **** 0.06
24360 H 142.30656008155955 49.79618793658824 137.54456003745153 H 0.0 **** 0.06
24361 C 49.81349916751121 124.22410384008774 22.102451153984873 C 0.0 **** -0.24
24362 H 49.60563976331231 124.335174048281 23.16713646749548 H 0.0 **** 0.06
24363 H 49.35606021908876 123.30404902381096 21.737750360770463 H 0.0 **** 0.06
24364 H 50.89109904902301 124.18105487066512 21.946223272611235 H 0.0 **** 0.06
24365 H 49.40170598439913 125.07555168648739 21.56101803948269 H 0.0 **** 0.06
24366 C 34.636462898085526 21.97028053218375 1.868479302282207 C 0.0 **** -0.24
24367 H 34.02081909682843 21.55187385037729 2.6643206346458186 H 0.0 **** 0.06
24368 H 35.025019682834426 21.163261792160398 1.2474927766769568 H 0.0 **** 0.06
24369 H 35.466174521194944 22.525842023110556 2.3050602569063656 H 0.0 **** 0.06
24370 H 34.03139286198575 22.640038248496467 1.256949439258488 H 0.0 **** 0.06
24371 C 94.16009201439543 123.70836128930372 12.070757680538861 C 0.0 **** -0.24
24372 H 95.02540870072328 123.68360666211089 11.407668561631311 H 0.0 **** 0.06
24373 H 93.32492953164515 124.18779628251792 11.559559444771025 H 0.0 **** 0.06
24374 H 94.40850561330224 124.27157284362431 12.969946924930696 H 0.0 **** 0.06
24375 H 93.88274975519647 122.69005468224749 12.344031976962896 H 0.0 **** 0.06
24376 C 88.57322259892763 121.75669114341702 129.68394733753118 C 0.0 **** -0.24
24377 H 89.6490696227086 121.84740479514426 129.53269545848144 H 0.0 **** 0.06
24378 H 88.2908317346581 122.26801015561591 130.6044223126635 H 0.0 **** 0.06
24379 H 88.30417047485363 120.70247823700066 129.75666624800996 H 0.0 **** 0.06
24380 H 88.04873531649179 122.20805884147359 128.84142836895847 H 0.0 **** 0.06
24381 C 118.64439210131893 80.03360569143508 7.762628656102436 C 0.0 **** -0.24
24382 H 118.21818444371026 79.03598869132377 7.6483556021664185 H 0.0 **** 0.06
24383 H 118.49165039393999 80.37863705666886 8.784670325379523 H 0.0 **** 0.06
24384 H 118.15505903832018 80.71828712966999 7.070557605915042 H 0.0 **** 0.06
24385 H 119.71194644398157 79.99880552258912 7.545855594689783 H 0.0 **** 0.06
24386 C 9.656533873952718 141.19816022505836 18.580976333299645 C 0.0 **** -0.24
24387 H 9.038692262511063 141.03235142060257 19.463087463882033 H 0.0 **** 0.06
24388 H 10.672160796207393 140.85416787188038 18.779266922690937 H 0.0 **** 0.06
24389 H 9.673070161684969 142.2620793950095 18.344283594501263 H 0.0 **** 0.06
24390 H 9.242399150176837 140.64437642502662 17.738191161439502 H 0.0 **** 0.06
24391 C 120.04267210370018 91.70198412136189 131.1798292744193 C 0.0 **** -0.24
24392 H 120.21821429388565 92.69621621684065 131.58914983554553 H 0.0 **** 0.06
24393 H 119.59264792754904 91.06835104966466 131.94542796653568 H 0.0 **** 0.06
24394 H 120.99024966859518 91.2680455440963 130.85999809493507 H 0.0 **** 0.06
24395 H 119.36914341529071 91.77410900556272 130.32532178835825 H 0.0 **** 0.06
24396 C 35.515434284463566 69.48433444125394 5.14629744155306 C 0.0 **** -0.24
24397 H 34.46306211752609 69.52976005470734 4.8667009182681795 H 0.0 **** 0.06
24398 H 35.85962577694134 70.47873180180173 5.427459184219288 H 0.0 **** 0.06
24399 H 36.09955181766923 69.12177728200783 4.300038060275909 H 0.0 **** 0.06
24400 H 35.63800514906553 68.80411219662474 5.989249982267069 H 0.0 **** 0.06
24401 C 35.560510339371234 80.99398102519123 101.70433952036173 C 0.0 **** -0.24
24402 H 35.26211961718823 81.51001034430982 102.61650265431005 H 0.0 **** 0.06
24403 H 35.413594341197296 81.65369624381731 100.84832697363866 H 0.0 **** 0.06
24404 H 34.954468729130014 80.09611045709867 101.58094611926006 H 0.0 **** 0.06
24405 H 36.612385237165626 80.71564728016678 101.77281173285468 H 0.0 **** 0.06
24406 C 145.2295667006749 54.25110796043219 37.01511053608155 C 0.0 **** -0.24
24407 H 144.92862756710892 53.39957606400739 37.62611544833919 H 0.0 **** 0.06
24408 H 145.54440371657122 53.898886640820635 36.031298144697274 H 0.0 **** 0.06
24409 H 146.0581626600608 54.77014286743166 37.496853616280674 H 0.0 **** 0.06
24410 H 144.38730778508264 54.93370456215632 36.90406695945552 H 0.0 **** 0.06
24411 C 128.35623569092627 71.89436478144441 84.58384109125296 C 0.0 **** -0.24
24412 H 128.10659266532832 72.65735352423582 85.32152154938589 H 0.0 **** 0.06
24413 H 127.94343674895332 70.93571989305929 84.8988997087776 H 0.0 **** 0.06
24414 H 129.43972899428366 71.81314645130755 84.49768579325232 H 0.0 **** 0.06
24415 H 127.93518435513954 72.17123925717499 83.61725731359596 H 0.0 **** 0.06
24416 C 136.1653255889939 60.499878081441835 71.12489189298773 C 0.0 **** -0.24
24417 H 136.93181926460858 60.43699063071689 71.89775057328927 H 0.0 **** 0.06
24418 H 136.3623339700925 59.750575825414 70.35732770615422 H 0.0 **** 0.06
24419 H 136.18173794137644 61.49328507754977 70.67762460077421 H 0.0 **** 0.06
24420 H 135.18676509169583 60.31615546695559 71.56929180532379 H 0.0 **** 0.06
24421 C 86.81804021335336 119.7304307755277 137.68607298871328 C 0.0 **** -0.24
24422 H 86.95865783543968 118.82501874996693 138.2772013021567 H 0.0 **** 0.06
24423 H 87.77745238001211 120.05151633951145 137.28087027845328 H 0.0 **** 0.06
24424 H 86.4085729115688 120.51675549365721 138.31998769151326 H 0.0 **** 0.06
24425 H 86.1266705560345 119.5266692081609 136.8685217008868 H 0.0 **** 0.06
24426 C 113.8990979886953 136.21043535962193 35.3376539411193 C 0.0 **** -0.24
24427 H 113.57009651611247 135.35519370449063 34.74588564524703 H 0.0 **** 0.06
24428 H 113.88197712002875 137.10764588023898 34.71798781746935 H 0.0 **** 0.06
24429 H 114.9137180199595 136.0354666433131 35.69649940789293 H 0.0 **** 0.06
24430 H 113.23013844041526 136.3420148701628 36.18784088015428 H 0.0 **** 0.06
24431 C 115.67974023656613 81.69923232309517 65.95856124855086 C 0.0 **** -0.24
24432 H 115.77712213525753 82.77723008208699 65.82464875970717 H 0.0 **** 0.06
24433 H 115.61762877672511 81.46999077158097 67.02251631690345 H 0.0 **** 0.06
24434 H 116.547689788677 81.19947869858959 65.52818025963174 H 0.0 **** 0.06
24435 H 114.77587901671988 81.35243937857871 65.45805907155639 H 0.0 **** 0.06
24436 C 130.79592819288857 39.850872669852436 128.677927163947 C 0.0 **** -0.24
24437 H 130.64192693747177 38.95945870030681 128.06925099710287 H 0.0 **** 0.06
24438 H 130.01654029376482 39.90990388778215 129.43741100107746 H 0.0 **** 0.06
24439 H 130.75239961865273 40.73597971565334 128.04278804241153 H 0.0 **** 0.06
24440 H 131.77148530484845 39.797098031490975 129.16051340429706 H 0.0 **** 0.06
24441 C 87.3754182251393 48.76619415486843 65.5499620695238 C 0.0 **** -0.24
24442 H 86.40853818933945 48.35242257541361 65.26318344109838 H 0.0 **** 0.06
24443 H 87.25531967245865 49.38428435302421 66.44073971936308 H 0.0 **** 0.06
24444 H 87.76677634174474 49.374320705837135 64.73538073536537 H 0.0 **** 0.06
24445 H 88.06951367063374 47.9528502082988 65.76334919511879 H 0.0 **** 0.06
24446 C 52.069189730313326 125.04463852356426 9.548917091933298 C 0.0 **** -0.24
24447 H 51.610176351323446 125.32219208114174 8.599533776961092 H 0.0 **** 0.06
24448 H 51.382123717492135 125.27228372007497 10.363855034810783 H 0.0 **** 0.06
24449 H 52.99301409016046 125.60568527142098 9.683579332884506 H 0.0 **** 0.06
24450 H 52.289476511992234 123.97659611034604 9.546073873473226 H 0.0 **** 0.06
24451 C 96.43281209946993 134.85584809246888 128.88152867886106 C 0.0 **** -0.24
24452 H 97.16557973848907 135.41648704216163 129.46209431792727 H 0.0 **** 0.06
24453 H 96.80776036229257 134.7067328086093 127.86902913650587 H 0.0 **** 0.06
24454 H 95.49637504891366 135.41217377629198 128.84432294079673 H 0.0 **** 0.06
24455 H 96.26155380011282 133.8872566486469 129.35133833331142 H 0.0 **** 0.06
24456 C 41.67682476903937 97.57010415414072 55.54076980039801 C 0.0 **** -0.24
24457 H 42.18139156222986 96.61419031289626 55.68089464120996 H 0.0 **** 0.06
24458 H 41.72213406117055 97.8538605794852 54.48880672910818 H 0.0 **** 0.06
24459 H 42.16934729330299 98.33227893407343 56.14497844334042 H 0.0 **** 0.06
24460 H 40.6339017383271 97.47923921612704 55.84848090179841 H 0.0 **** 0.06
24461 C 91.85953316930366 89.75078501119914 23.736669902127026 C 0.0 **** -0.24
24462 H 92.78259090951084 90.3205204397788 23.8421205107894 H 0.0 **** 0.06
24463 H 92.09875892799752 88.7047504712828 23.538334857498448 H 0.0 **** 0.06
24464 H 91.2763028483208 90.1533888652647 22.907895825560992 H 0.0 **** 0.06
24465 H 91.27973823990726 89.82278872048607 24.65671946088291 H 0.0 **** 0.06
24466 C 1.1141874505852911 27.465231212573883 50.74019944844531 C 0.0 **** -0.24
24467 H 0.9309398784390339 26.61074477228189 50.08758454366537 H 0.0 **** 0.06
24468 H 2.1877867418101573 27.605489643265997 50.86113736231583 H 0.0 **** 0.06
24469 H 0.6584298570853377 27.28315160038258 51.71264783178776 H 0.0 **** 0.06
24470 H 0.6774910342397504 28.360378541127048 50.29607621536462 H 0.0 **** 0.06
24471 C 69.00425559068287 88.64479708687558 28.736452495682613 C 0.0 **** -0.24
24472 H 68.49385446145733 89.35364818001308 29.388528959744832 H 0.0 **** 0.06
24473 H 68.45204900163249 87.70514232765706 28.71957897283933 H 0.0 **** 0.06
24474 H 70.01201018561173 88.46780788912415 29.111556980680945 H 0.0 **** 0.06
24475 H 69.05835553362989 89.05408945562401 27.727623048728418 H 0.0 **** 0.06
24476 C 126.85488599926762 55.084548241946734 105.7138404408531 C 0.0 **** -0.24
24477 H 126.16637016782714 55.227510853393866 104.88059523802242 H 0.0 **** 0.06
24478 H 126.30863534974299 55.16538661066039 106.6545339923775 H 0.0 **** 0.06
24479 H 127.63180633934495 55.84820308897895 105.67795235878815 H 0.0 **** 0.06
24480 H 127.31060368979655 54.09774762356845 105.64207863294153 H 0.0 **** 0.06
24481 C 109.190400437834 17.051938455679647 126.63309717896652 C 0.0 **** -0.24
24482 H 109.82979471354997 16.424166120577127 126.01298612128 H 0.0 **** 0.06
24483 H 109.79202174419919 17.82728360399227 127.10732560146698 H 0.0 **** 0.06
24484 H 108.71457902065384 16.44011208688488 127.39926710437626 H 0.0 **** 0.06
24485 H 108.42457946666065 17.515555763811847 126.01052897551166 H 0.0 **** 0.06
24486 C 56.94103971051965 39.45978020228958 18.14979460891402 C 0.0 **** -0.24
24487 H 57.99841489661952 39.194330232093506 18.121938243552677 H 0.0 **** 0.06
24488 H 56.39510804657773 38.714787238206696 18.729304774924884 H 0.0 **** 0.06
24489 H 56.54750905302109 39.49028781493806 17.133743032453054 H 0.0 **** 0.06
24490 H 56.826089360185975 40.439318089263764 18.613935581879304 H 0.0 **** 0.06
24491 C 84.45661842810563 124.89130420432295 24.578475783446954 C 0.0 **** -0.24
24492 H 83.88023657188273 125.36872397640617 25.370352146684468 H 0.0 **** 0.06
24493 H 84.92588260182984 123.9859402679855 24.965662106649972 H 0.0 **** 0.06
24494 H 85.2259628423239 125.5774436195559 24.224883144553395 H 0.0 **** 0.06
24495 H 83.79366936166345 124.6320372212378 23.752431531925083 H 0.0 **** 0.06
24496 C 30.865743572359065 0.5308943343536043 141.75206397915315 C 0.0 **** -0.24
24497 H 31.089100868220385 1.3989333359712077 142.37128578939956 H 0.0 **** 0.06
24498 H 30.678630969834046 0.8530184777547731 140.72763837819255 H 0.0 **** 0.06
24499 H 29.981719908930955 0.024899224291687005 142.14105760371768 H 0.0 **** 0.06
24500 H 31.713287568971595 -0.15482192345814383 141.769014364528 H 0.0 **** 0.06
24501 C 115.08229776954344 9.268473443213225 13.18074164107167 C 0.0 **** -0.24
24502 H 115.82530294877263 9.936317994180143 13.616748360027685 H 0.0 **** 0.06
24503 H 115.47767377910758 8.252503185101716 13.156222535822259 H 0.0 **** 0.06
24504 H 114.851450984778 9.593952995954908 12.167104300920919 H 0.0 **** 0.06
24505 H 114.17595883667043 9.29064239618603 13.785601260622606 H 0.0 **** 0.06
24506 C 9.615033889109753 140.23673801598346 0.2373317422261607 C 0.0 **** -0.24
24507 H 9.12701571501259 141.13809700442812 0.6085555909539835 H 0.0 **** 0.06
24508 H 9.363530759702115 139.39464692022918 0.8825299154864865 H 0.0 **** 0.06
24509 H 10.695101515871528 140.38389219569723 0.23442140002467227 H 0.0 **** 0.06
24510 H 9.274082232696145 140.03095232539138 -0.7782849177579294 H 0.0 **** 0.06
24511 C 28.545917706937843 140.9797226193272 67.83262528306233 C 0.0 **** -0.24
24512 H 29.50719390131607 140.46417464252667 67.82170102807328 H 0.0 **** 0.06
24513 H 28.551423303330267 141.73966720942266 68.61380054558322 H 0.0 **** 0.06
24514 H 27.75088079767042 140.2611066365996 68.02927532171151 H 0.0 **** 0.06
24515 H 28.37703862678012 141.45237051990983 66.86516019007024 H 0.0 **** 0.06
24516 C 40.07473835619277 57.70331069802546 73.2245276655101 C 0.0 **** -0.24
24517 H 39.29989322170226 57.10934932792176 73.70968931347869 H 0.0 **** 0.06
24518 H 39.609035519287474 58.479048162933594 72.61509002698068 H 0.0 **** 0.06
24519 H 40.68271955233081 57.05866481022409 72.59006535331332 H 0.0 **** 0.06
24520 H 40.70620506871553 58.166884216728505 73.98272308754997 H 0.0 **** 0.06
24521 C 47.79031772023241 33.50282851569588 36.194930687160735 C 0.0 **** -0.24
24522 H 47.29321588227613 32.674251404467654 35.69036093388101 H 0.0 **** 0.06
24523 H 47.084341872340545 34.322596113870674 36.329690119125814 H 0.0 **** 0.06
24524 H 48.63162853488046 33.843471001743666 35.59054360014957 H 0.0 **** 0.06
24525 H 48.15346488575378 33.17051021640037 37.16776448971652 H 0.0 **** 0.06
24526 C 71.36212808149926 10.835512418463452 142.6886093514294 C 0.0 **** -0.24
24527 H 70.63806970757153 11.162660922410964 141.94266551494857 H 0.0 **** 0.06
24528 H 70.83432470886639 10.472543849648446 143.57171886114887 H 0.0 **** 0.06
24529 H 72.00152895199076 11.67318568393057 142.96518280714668 H 0.0 **** 0.06
24530 H 71.97216108173434 10.033334505311643 142.2748858040277 H 0.0 **** 0.06
24531 C 10.881529387726289 78.21429570776485 112.46343010270853 C 0.0 **** -0.24
24532 H 10.937042780967715 79.27934131238766 112.2401254156543 H 0.0 **** 0.06
24533 H 11.76913106542139 77.91251094816761 113.0186157249071 H 0.0 **** 0.06
24534 H 10.826100788511269 77.65071043519191 111.53149810132295 H 0.0 **** 0.06
24535 H 9.99237879259448 78.01481775491794 113.06180262567032 H 0.0 **** 0.06
24536 C 134.88308257461165 79.09261794991195 63.514151214851694 C 0.0 **** -0.24
24537 H 135.2546542406246 78.97238428652165 64.53147477791214 H 0.0 **** 0.06
24538 H 134.5053168108858 78.13731504918084 63.150449043218515 H 0.0 **** 0.06
24539 H 135.69426533100028 79.43325797347123 62.86981601065142 H 0.0 **** 0.06
24540 H 134.07974094864554 79.82884832742388 63.506093206901795 H 0.0 **** 0.06
24541 C 116.77484210629139 39.73406663835027 12.536867274841484 C 0.0 **** -0.24
24542 H 116.42189888287415 40.397501975629154 11.746443596610334 H 0.0 **** 0.06
24543 H 117.10409921083924 40.32907741027026 13.389562354861674 H 0.0 **** 0.06
24544 H 117.60813447589082 39.13778814853873 12.16564002680689 H 0.0 **** 0.06
24545 H 115.96427336469777 39.073704054814925 12.844919973635442 H 0.0 **** 0.06
24546 C 64.5280322597759 99.38685335610606 31.66359249356725 C 0.0 **** -0.24
24547 H 63.44206472749602 99.4787090764004 31.68723464865235 H 0.0 **** 0.06
24548 H 64.97891698368515 100.31441707399082 32.01549927888567 H 0.0 **** 0.06
24549 H 64.85268848325143 99.18926479216591 30.64196438353798 H 0.0 **** 0.06
24550 H 64.83691168780909 98.56373826163232 32.30869324485519 H 0.0 **** 0.06
24551 C 92.46785235474539 24.983743973250462 64.07024458721561 C 0.0 **** -0.24
24552 H 91.59257924128742 25.62467437212863 63.9678968218237 H 0.0 **** 0.06
24553 H 92.7118659051791 24.546228101164004 63.101786958322975 H 0.0 **** 0.06
24554 H 92.25573714985731 24.1895593118576 64.78483725719778 H 0.0 **** 0.06
24555 H 93.31163549515252 25.576321136532854 64.42389443889697 H 0.0 **** 0.06
24556 C 116.29109939852216 119.66619447325041 116.96264668538497 C 0.0 **** -0.24
24557 H 116.32898932761074 120.75436520819392 116.93006392540487 H 0.0 **** 0.06
24558 H 116.09986805069607 119.33968465742953 117.98573753492853 H 0.0 **** 0.06
24559 H 117.24445709685457 119.25966171285847 116.62436554246652 H 0.0 **** 0.06
24560 H 115.49221864957505 119.31050598785134 116.31251660932817 H 0.0 **** 0.06
24561 C 99.47467224540392 35.440832975553505 133.61030965700587 C 0.0 **** -0.24
24562 H 99.31770630534893 36.36124964857444 134.17210651383493 H 0.0 **** 0.06
24563 H 99.31266422063071 34.583704906797976 134.26559804150753 H 0.0 **** 0.06
24564 H 100.49502537175299 35.418714026159364 133.22782810543274 H 0.0 **** 0.06
24565 H 98.77307085086387 35.39960062494137 132.77710123392308 H 0.0 **** 0.06
24566 C 21.555594418649164 135.13701432571878 44.132808897505186 C 0.0 **** -0.24
24567 H 20.77997011211302 134.76332657103842 43.464418825593555 H 0.0 **** 0.06
24568 H 21.555629337516855 136.22694557798573 44.11526559877643 H 0.0 **** 0.06
24569 H 22.52662370038243 134.76780224369884 43.80410472622407 H 0.0 **** 0.06
24570 H 21.35794594085781 134.7896685507082 45.14729296476355 H 0.0 **** 0.06
24571 C 121.31715275600038 106.33526794793444 16.059361908918447 C 0.0 **** -0.24
24572 H 121.74507352195047 106.33408211417729 17.06183101394015 H 0.0 **** 0.06
24573 H 122.12031980101813 106.36752055952631 15.3228326259337 H 0.0 **** 0.06
24574 H 120.67677208470099 107.20821616228194 15.937497811848857 H 0.0 **** 0.06
24575 H 120.727581004704 105.4294418186867 15.915942609258593 H 0.0 **** 0.06
24576 C 4.677322232536312 114.7011692398873 22.673131912445626 C 0.0 **** -0.24
24577 H 5.3422958094824935 114.95229643263112 23.499858710699385 H 0.0 **** 0.06
24578 H 4.546582226504427 115.57506434767409 22.03395404860146 H 0.0 **** 0.06
24579 H 3.709818824082447 114.39056475686867 23.06682199509416 H 0.0 **** 0.06
24580 H 5.111397366013591 113.8877672345689 22.092458325670606 H 0.0 **** 0.06
24581 C 68.28459352544448 63.089581468331446 84.97039463409192 C 0.0 **** -0.24
24582 H 67.91918682406353 62.79672008724776 83.98573881474948 H 0.0 **** 0.06
24583 H 67.565022688899 63.76049898131575 85.43966363947771 H 0.0 **** 0.06
24584 H 69.24313619090857 63.59879616814912 84.86545041693358 H 0.0 **** 0.06
24585 H 68.41112168782549 62.200983062541184 85.58892870597421 H 0.0 **** 0.06
24586 C 129.20223168582044 14.540879397365927 0.8864247610238181 C 0.0 **** -0.24
24587 H 128.53212426232776 14.77102119353657 1.7156628199915929 H 0.0 **** 0.06
24588 H 130.07472527917483 14.007500448326397 1.2623698071837453 H 0.0 **** 0.06
24589 H 129.5196662163492 15.468407335778835 0.4094266892780354 H 0.0 **** 0.06
24590 H 128.68019974833777 13.919125867177826 0.15906027012394475 H 0.0 **** 0.06
24591 C 101.35709237211782 32.23209233579587 69.00670640579082 C 0.0 **** -0.24
24592 H 100.85341822994917 31.45902158587029 69.58820441103772 H 0.0 **** 0.06
24593 H 102.01902830014534 31.764055668996434 68.2781713024253 H 0.0 **** 0.06
24594 H 101.94184635517124 32.865434558176844 69.67384455221203 H 0.0 **** 0.06
24595 H 100.61476068492277 32.83735650294415 68.48773550996722 H 0.0 **** 0.06
24596 C 117.8635541065102 73.45925830625163 88.3576810425868 C 0.0 **** -0.24
24597 H 117.77782972863172 74.40735533725021 88.88875943140724 H 0.0 **** 0.06
24598 H 118.42407251983862 73.60977856066907 87.43548766712813 H 0.0 **** 0.06
24599 H 116.86776168802261 73.08485468220636 88.1214052284082 H 0.0 **** 0.06
24600 H 118.38491711459399 72.736862346978 88.98632213379888 H 0.0 **** 0.06
24601 C 133.59199428436878 8.4200215999291 27.9768289511768 C 0.0 **** -0.24
24602 H 134.5390886518935 8.287675758958017 28.50057866718319 H 0.0 **** 0.06
24603 H 133.7802990814755 8.52848237438269 26.908930810185183 H 0.0 **** 0.06
24604 H 133.0928029654001 9.313728693363743 28.35163098799316 H 0.0 **** 0.06
24605 H 132.9582834350982 7.55011767462841 28.148114085974896 H 0.0 **** 0.06
24606 C 29.801854169134472 123.73925546629289 72.23373585812699 C 0.0 **** -0.24
24607 H 29.28198118822027 123.21036162820786 71.434258319722 H 0.0 **** 0.06
24608 H 29.08351142163923 124.04221505745528 72.99557316608539 H 0.0 **** 0.06
24609 H 30.29313727691411 124.62197261132656 71.82550527754765 H 0.0 **** 0.06
24610 H 30.548592773972615 123.08067421001252 72.6782919508643 H 0.0 **** 0.06
24611 C 139.94805380579626 6.3973780407540985 76.75399464157499 C 0.0 **** -0.24
24612 H 139.9379153098906 5.3091956042922135 76.81765860939305 H 0.0 **** 0.06
24613 H 140.20469847085812 6.70056305429711 75.73869897912817 H 0.0 **** 0.06
24614 H 140.6884851440451 6.794569513150261 77.44946450637244 H 0.0 **** 0.06
24615 H 138.96326109622055 6.785972498941835 77.01210030552295 H 0.0 **** 0.06
24616 C 46.60179792762531 123.6326260804673 43.10586757714731 C 0.0 **** -0.24
24617 H 46.95665547636011 122.8330711836808 42.45477462785871 H 0.0 **** 0.06
24618 H 45.8253394333606 124.20065116314464 42.59273636493303 H 0.0 **** 0.06
24619 H 47.43173003369017 124.29332164980144 43.35477302828822 H 0.0 **** 0.06
24620 H 46.19287460442783 123.20202092943663 44.019580765318466 H 0.0 **** 0.06
24621 C 85.67022790703642 22.693712289819302 99.73168256389161 C 0.0 **** -0.24
24622 H 84.65885991334645 23.04741249738035 99.5304641341564 H 0.0 **** 0.06
24623 H 86.000170626283 22.05360687379354 98.91414987049131 H 0.0 **** 0.06
24624 H 85.67808720378862 22.128343581568828 100.66411507977116 H 0.0 **** 0.06
24625 H 86.34206242040396 23.547478799129834 99.81942665323581 H 0.0 **** 0.06
24626 C 129.9511754784752 11.677934015080666 54.18732677873062 C 0.0 **** -0.24
24627 H 129.32132268995045 12.562808499051812 54.28124444402394 H 0.0 **** 0.06
24628 H 130.98730567810608 11.946280873552723 54.39261207433489 H 0.0 **** 0.06
24629 H 129.87175109927492 11.282076268249739 53.17425305865471 H 0.0 **** 0.06
24630 H 129.6226546215 10.92102559235991 54.89977930112087 H 0.0 **** 0.06
24631 C 130.91334260384897 85.62818913190564 132.18329175199227 C 0.0 **** -0.24
24632 H 131.3651120016394 85.69381491128627 133.1724603474908 H 0.0 **** 0.06
24633 H 131.4665625242507 84.90872909322636 131.57848688402834 H 0.0 **** 0.06
24634 H 130.94346169374117 86.60626653671834 131.7032893351602 H 0.0 **** 0.06
24635 H 129.87680842424632 85.30232093184499 132.27835895926285 H 0.0 **** 0.06
24636 C 73.96358333342245 43.50954221611565 59.09219555561074 C 0.0 **** -0.24
24637 H 74.21912764493509 44.56697926050697 59.01840575834402 H 0.0 **** 0.06
24638 H 74.48773939713489 42.954490675845534 58.31355562046619 H 0.0 **** 0.06
24639 H 72.88848953667005 43.38626470523789 58.96664945884331 H 0.0 **** 0.06
24640 H 74.26158711909186 43.13190680590287 60.070037626048276 H 0.0 **** 0.06
24641 C 115.22001630765125 60.96470141274526 142.23230880834848 C 0.0 **** -0.24
24642 H 114.5516105835399 61.293605421976324 143.02829866783043 H 0.0 **** 0.06
24643 H 116.20270183283752 61.41391607835084 142.3744749808004 H 0.0 **** 0.06
24644 H 114.81570230450639 61.2734946935294 141.26795678579137 H 0.0 **** 0.06
24645 H 115.30948203543612 59.8781878174087 142.25778494499104 H 0.0 **** 0.06
24646 C 23.376933316807026 38.218561942312704 99.0958135169275 C 0.0 **** -0.24
24647 H 22.96624747423104 37.241306370191325 98.84217286855832 H 0.0 **** 0.06
24648 H 24.384422171022948 38.09622817980082 99.49483557688512 H 0.0 **** 0.06
24649 H 22.744964912926577 38.695041644063906 99.84436202391397 H 0.0 **** 0.06
24650 H 23.414023830196697 38.841162194580136 98.2020696485575 H 0.0 **** 0.06
24651 C 138.31771981938388 66.63838274990647 17.190277368164402 C 0.0 **** -0.24
24652 H 137.31253426540053 66.98758269070873 16.951004793869743 H 0.0 **** 0.06
24653 H 138.80668992292368 66.28972218453669 16.279463974726866 H 0.0 **** 0.06
24654 H 138.25653687116238 65.81940752970239 17.90611120268892 H 0.0 **** 0.06
24655 H 138.8936014446027 67.4570606049788 17.621424448472 H 0.0 **** 0.06
24656 C 93.01217161156364 48.68245484217161 46.00197098461584 C 0.0 **** -0.24
24657 H 93.06192845382299 49.68576962350426 46.42577592785395 H 0.0 **** 0.06
24658 H 92.22956531950229 48.11471711781823 46.505330863178386 H 0.0 **** 0.06
24659 H 93.97079828193478 48.18191330225977 46.140195412273926 H 0.0 **** 0.06
24660 H 92.78791378159434 48.74895124856101 44.93774144409443 H 0.0 **** 0.06
24661 C 127.61654192050267 145.08984230216723 96.06154908642857 C 0.0 **** -0.24
24662 H 128.33522949514705 145.794371267336 96.48172412289101 H 0.0 **** 0.06
24663 H 128.0047584422399 144.69349404166834 95.12238618225307 H 0.0 **** 0.06
24664 H 126.67278390984652 145.60203487769763 95.87737680692219 H 0.0 **** 0.06
24665 H 127.45656103458461 144.27264379547546 96.76375884390019 H 0.0 **** 0.06
24666 C 125.07523452833519 46.71888544622708 61.579766763722375 C 0.0 **** -0.24
24667 H 125.44121748797028 45.695827107072304 61.498323740462524 H 0.0 **** 0.06
24668 H 125.10312856807239 47.19339089399192 60.59875279409545 H 0.0 **** 0.06
24669 H 125.7069292723115 47.276945101028005 62.27193446914288 H 0.0 **** 0.06
24670 H 124.05000644344088 46.71012811283195 61.9506219992428 H 0.0 **** 0.06
24671 C 4.136058504123326 113.28293188351742 57.28770913236062 C 0.0 **** -0.24
24672 H 4.312777211654833 112.58921496831809 56.46531855190392 H 0.0 **** 0.06
24673 H 3.358006397607568 112.88416096915259 57.937871058171595 H 0.0 **** 0.06
24674 H 3.8184226837722406 114.24608208593597 56.88774527404303 H 0.0 **** 0.06
24675 H 5.056694344621803 113.41141324283919 57.858323848947634 H 0.0 **** 0.06
24676 C 107.26586337953944 111.3677943733711 119.02559483187937 C 0.0 **** -0.24
24677 H 108.20692118647821 111.14923579161679 119.53114827459044 H 0.0 **** 0.06
24678 H 106.94849307558678 110.49421801491054 118.45562521889579 H 0.0 **** 0.06
24679 H 107.40429674404061 112.21215258955617 118.35032429168766 H 0.0 **** 0.06
24680 H 106.50510853824 111.6158445552053 119.76631077717073 H 0.0 **** 0.06
24681 C 106.26594964968363 76.58200974117057 112.37764040908421 C 0.0 **** -0.24
24682 H 105.85569280683735 76.83162583645031 111.40006742246557 H 0.0 **** 0.06
24683 H 105.50223466316238 76.08511893306536 112.97578155735054 H 0.0 **** 0.06
24684 H 106.58635320554801 77.4939610929494 112.88092280313354 H 0.0 **** 0.06
24685 H 107.12074706497388 75.916634606159 112.25375242227564 H 0.0 **** 0.06
24686 C 59.59651859454449 92.7744308676545 119.02242014989129 C 0.0 **** -0.24
24687 H 58.57245425900223 92.67788995363989 118.66269670667826 H 0.0 **** 0.06
24688 H 60.26377926013011 92.20325592471247 118.37629375167747 H 0.0 **** 0.06
24689 H 59.661607388685 92.39198100158015 120.04056964917548 H 0.0 **** 0.06
24690 H 59.88895991409905 93.82453914174712 119.00943563964385 H 0.0 **** 0.06
24691 C 10.476544937126619 87.0000490878225 99.68104599739901 C 0.0 **** -0.24
24692 H 10.327010146334231 86.10124615219212 100.27953871975232 H 0.0 **** 0.06
24693 H 11.122740055145186 86.76956293918126 98.83371021628923 H 0.0 **** 0.06
24694 H 10.943322219434492 87.77044995504319 100.2951399533483 H 0.0 **** 0.06
24695 H 9.513905947438587 87.35906776415479 99.3181071228727 H 0.0 **** 0.06
24696 C 29.86766106402507 144.81154468617348 45.603166849306376 C 0.0 **** -0.24
24697 H 29.270314620884477 143.94655363149957 45.31680073377041 H 0.0 **** 0.06
24698 H 30.885675653460467 144.49117780724424 45.826301975439236 H 0.0 **** 0.06
24699 H 29.431012721871923 145.27800103186183 46.486354601905845 H 0.0 **** 0.06
24700 H 29.88337545327809 145.53016606382343 44.78413251374312 H 0.0 **** 0.06
24701 C 93.65590580475336 93.88251638890677 71.27679390194257 C 0.0 **** -0.24
24702 H 93.82383426391203 93.94697862626994 70.20108269048 H 0.0 **** 0.06
24703 H 94.56940069503824 94.15837605891885 71.803856930302 H 0.0 **** 0.06
24704 H 93.37741232243249 92.86206478602891 71.53988096469206 H 0.0 **** 0.06
24705 H 92.8531456504123 94.56369807135569 71.55937761438739 H 0.0 **** 0.06
24706 C 28.36137835635096 121.31826672338099 96.23295824161958 C 0.0 **** -0.24
24707 H 28.369254559885967 121.86918186609682 97.17393401537394 H 0.0 **** 0.06
24708 H 29.25447857836693 120.69673781366566 96.16787593336606 H 0.0 **** 0.06
24709 H 28.34721220265245 122.02262585800776 95.40065753439889 H 0.0 **** 0.06
24710 H 27.47439334434344 120.68688951381188 96.189966778093 H 0.0 **** 0.06
24711 C 24.758084092550952 114.68905264554472 54.8942523454736 C 0.0 **** -0.24
24712 H 23.849486087582825 115.00712414994497 55.40564855796458 H 0.0 **** 0.06
24713 H 25.019454667306384 113.68081257812123 55.21349399009789 H 0.0 **** 0.06
24714 H 25.570742505206688 115.37165361188165 55.140571396129104 H 0.0 **** 0.06
24715 H 24.590085826770114 114.6977613632828 53.816967949589895 H 0.0 **** 0.06
24716 C 57.54446287374317 34.37066574196668 134.9287793971491 C 0.0 **** -0.24
24717 H 57.5405544403926 34.53325921230606 133.850925052074 H 0.0 **** 0.06
24718 H 57.148372238824706 35.253750393618354 135.43132059401358 H 0.0 **** 0.06
24719 H 58.564911463953706 34.18833087105031 135.2643975233452 H 0.0 **** 0.06
24720 H 56.92320366455536 33.50757282628401 135.16794358732912 H 0.0 **** 0.06
24721 C 136.70734558789644 22.903630411873706 89.04054364370967 C 0.0 **** -0.24
24722 H 136.72216818386522 23.7235960194092 89.75962684951361 H 0.0 **** 0.06
24723 H 136.18385003298275 23.222171502339393 88.13847218081025 H 0.0 **** 0.06
24724 H 136.19227323655238 22.047488787711814 89.47644603740656 H 0.0 **** 0.06
24725 H 137.72941499002116 22.62375143446394 88.78752439047764 H 0.0 **** 0.06
24726 C 34.2686951461763 30.280274937212845 121.50435379051235 C 0.0 **** -0.24
24727 H 33.286555257358316 30.712853459122123 121.69536678026252 H 0.0 **** 0.06
24728 H 34.380251046899645 30.0877555890564 120.43705415996182 H 0.0 **** 0.06
24729 H 34.36724886227239 29.344621266927994 122.0551325926662 H 0.0 **** 0.06
24730 H 35.041909188337144 30.976288429783615 121.83141832606255 H 0.0 **** 0.06
24731 C 38.125518643629476 20.77419327206829 138.25670825748037 C 0.0 **** -0.24
24732 H 38.548927323009366 19.78210893747022 138.41529162303695 H 0.0 **** 0.06
24733 H 38.92583631603159 21.477737648797152 138.02525659695524 H 0.0 **** 0.06
24734 H 37.60776127506884 21.096164993571577 139.16009931534208 H 0.0 **** 0.06
24735 H 37.42066132890557 20.738838728013974 137.4259260200867 H 0.0 **** 0.06
24736 C 27.014866690992314 141.64252975236153 116.40621133639969 C 0.0 **** -0.24
24737 H 26.24764314278878 142.30081550004707 115.99829981495891 H 0.0 **** 0.06
24738 H 26.950472339737104 141.6398666393345 117.49372920614955 H 0.0 **** 0.06
24739 H 27.998863351487934 141.99891872541082 116.10079622936995 H 0.0 **** 0.06
24740 H 26.862591304727324 140.63129366156292 116.02969885638386 H 0.0 **** 0.06
24741 C 41.31565070819174 129.8714356465907 98.91448762469972 C 0.0 **** -0.24
24742 H 41.14488496104988 128.7956320700885 98.95408080489383 H 0.0 **** 0.06
24743 H 41.923595796857754 130.17340762291835 99.76755069886966 H 0.0 **** 0.06
24744 H 40.3591599146628 130.39311252035978 98.9468835552818 H 0.0 **** 0.06
24745 H 41.835620987985976 130.12267500166197 97.99028874428785 H 0.0 **** 0.06
24746 C 26.690562305706173 104.27474175616159 18.82108220905789 C 0.0 **** -0.24
24747 H 26.32138348653052 104.84039887447183 19.676343516649126 H 0.0 **** 0.06
24748 H 26.354477132712162 104.75096282650838 17.899474272517665 H 0.0 **** 0.06
24749 H 26.305608742634654 103.2558725179422 18.865378172566864 H 0.0 **** 0.06
24750 H 27.779712415663255 104.25256788353065 18.84353696976595 H 0.0 **** 0.06
24751 C 120.94902436978403 121.1631458315206 49.63732757129219 C 0.0 **** -0.24
24752 H 120.85349089295507 121.3138960990231 50.71349237754745 H 0.0 **** 0.06
24753 H 121.01994939536532 120.09614889472586 49.424978575550014 H 0.0 **** 0.06
24754 H 121.84671349472337 121.66714700214798 49.2786034840462 H 0.0 **** 0.06
24755 H 120.07411408642814 121.57679225021077 49.134621310676465 H 0.0 **** 0.06
24756 C 26.80612732111662 90.14824243837461 58.78128426491418 C 0.0 **** -0.24
24757 H 26.515434378016067 89.58958138258579 59.67140188042873 H 0.0 **** 0.06
24758 H 27.662612959943885 89.66487868791961 58.31358603140444 H 0.0 **** 0.06
24759 H 27.0717815720392 91.1677145714556 59.062853674117775 H 0.0 **** 0.06
24760 H 25.972552945981874 90.17052196589275 58.079393051507395 H 0.0 **** 0.06
24761 C 8.150834124176157 85.28660700986367 36.419137321276835 C 0.0 **** -0.24
24762 H 8.265803316789004 84.20662706849365 36.50056965251645 H 0.0 **** 0.06
24763 H 9.133208870231243 85.75919601136246 36.445546294878284 H 0.0 **** 0.06
24764 H 7.549098602084513 85.65226528234916 37.251710034913415 H 0.0 **** 0.06
24765 H 7.655392362378194 85.52968212093131 35.479135805538505 H 0.0 **** 0.06
24766 C 121.42907589235739 76.03657887063429 81.73514037393888 C 0.0 **** -0.24
24767 H 122.3439209767817 75.72390835893619 82.23870519289038 H 0.0 **** 0.06
24768 H 121.65311484686589 76.85151703361494 81.04816209685073 H 0.0 **** 0.06
24769 H 120.7047010443631 76.37387382038975 82.47668882485331 H 0.0 **** 0.06
24770 H 121.01540427193447 75.19505553940978 81.17911592751332 H 0.0 **** 0.06
24771 C 37.543410828723154 6.4364505507987 137.9771334810261 C 0.0 **** -0.24
24772 H 36.58405800094201 6.587939695691304 137.4826882633559 H 0.0 **** 0.06
24773 H 38.093806158553704 7.377768841015861 137.99752494640512 H 0.0 **** 0.06
24774 H 38.11973295740205 5.6900039177049315 137.42972489234984 H 0.0 **** 0.06
24775 H 37.37572577751632 6.090660197645498 138.9964575663443 H 0.0 **** 0.06
24776 C 45.00370246659541 132.76719680657473 125.35454450282793 C 0.0 **** -0.24
24777 H 44.91662597242538 133.84517514007874 125.21588547657434 H 0.0 **** 0.06
24778 H 44.46675954883392 132.47228745616044 126.2554344079857 H 0.0 **** 0.06
24779 H 46.055661333553445 132.49776428281373 125.45217944439615 H 0.0 **** 0.06
24780 H 44.57658360857616 132.2543788009332 124.49252067025984 H 0.0 **** 0.06
24781 C 144.85437943495967 49.10819772944845 84.45066650626049 C 0.0 **** -0.24
24782 H 144.39293685751642 48.806952624663126 85.3909489203094 H 0.0 **** 0.06
24783 H 144.3203474135292 48.64533419641927 83.6203460382417 H 0.0 **** 0.06
24784 H 145.896035176641 48.78677750053086 84.4374276432041 H 0.0 **** 0.06
24785 H 144.80700929062928 50.19266732883662 84.35326198428086 H 0.0 **** 0.06
24786 C 106.15603236818298 64.04541465118857 48.04521748083344 C 0.0 **** -0.24
24787 H 105.84632465147506 64.82816705217468 47.352356217316284 H 0.0 **** 0.06
24788 H 105.85504940539896 64.31644024428365 49.057583183814984 H 0.0 **** 0.06
24789 H 107.2400523079403 63.93402164349234 48.005502151452774 H 0.0 **** 0.06
24790 H 105.68406104269475 63.10366958894738 47.76456428668146 H 0.0 **** 0.06
24791 C 33.86755308933354 97.53718116884028 122.9734373069214 C 0.0 **** -0.24
24792 H 34.25929426887879 98.54906538608839 122.87357719285569 H 0.0 **** 0.06
24793 H 32.9339774803693 97.4518493345978 122.41725302047996 H 0.0 **** 0.06
24794 H 33.68328046129029 97.32160087335603 124.02671870653398 H 0.0 **** 0.06
24795 H 34.59289799724322 96.82572502986721 122.57888082487574 H 0.0 **** 0.06
24796 C 142.1026850661957 3.016408129132344 53.75133344549829 C 0.0 **** -0.24
24797 H 141.5221259416232 2.551214628230923 52.95380660131252 H 0.0 **** 0.06
24798 H 143.08987276218306 3.2827586310995116 53.3740169359354 H 0.0 **** 0.06
24799 H 142.20766126369227 2.315221159974328 54.579728136706194 H 0.0 **** 0.06
24800 H 141.59023693810053 3.9136031880120186 54.0972796857248 H 0.0 **** 0.06
24801 C 89.87792373703473 117.98756438269875 79.7112627982077 C 0.0 **** -0.24
24802 H 90.02335417824614 119.06628367380166 79.65455680413476 H 0.0 **** 0.06
24803 H 90.76624940112082 117.52412781342842 80.14130348121017 H 0.0 **** 0.06
24804 H 89.7091786055989 117.59011708913367 78.710126617387 H 0.0 **** 0.06
24805 H 89.01421738500139 117.76932483777732 80.33943135818384 H 0.0 **** 0.06
24806 C 65.56170510408516 41.578508358418944 22.67706168065547 C 0.0 **** -0.24
24807 H 65.44940245557586 41.35550773570017 23.738386212624107 H 0.0 **** 0.06
24808 H 66.14190226043392 40.78825255596897 22.199806028008766 H 0.0 **** 0.06
24809 H 66.07899823315246 42.53056872240384 22.55808781315227 H 0.0 **** 0.06
24810 H 64.57773688786351 41.63786153213202 22.211624620049577 H 0.0 **** 0.06
24811 C 27.490540741120242 102.42549532370523 15.533797021039561 C 0.0 **** -0.24
24812 H 27.105672742041406 102.17794917096401 16.522953939958313 H 0.0 **** 0.06
24813 H 27.618487337266004 101.51112518052068 14.954488982491398 H 0.0 **** 0.06
24814 H 28.452424790210046 102.92934420236901 15.634773906912358 H 0.0 **** 0.06
24815 H 26.786477252800694 103.08461041043998 15.024994659340848 H 0.0 **** 0.06
24816 C 99.15860588507032 12.589559443614256 11.95469845776762 C 0.0 **** -0.24
24817 H 98.25799698213329 12.296285745316844 11.415249629208517 H 0.0 **** 0.06
24818 H 99.60140462992308 13.462468341102202 11.474935777377766 H 0.0 **** 0.06
24819 H 99.8731832155997 11.765961700497144 11.94162419137453 H 0.0 **** 0.06
24820 H 98.9012561640041 12.83152134773551 12.986172878757998 H 0.0 **** 0.06
24821 C 34.545529140010274 92.32087969101954 70.77949927369357 C 0.0 **** -0.24
24822 H 34.66999717280514 91.67104563128701 71.64611298829934 H 0.0 **** 0.06
24823 H 33.831588613910895 93.10919712342277 71.01651491395934 H 0.0 **** 0.06
24824 H 34.17522686393592 91.73538919110949 69.93758536882605 H 0.0 **** 0.06
24825 H 35.506306808606425 92.76526778042759 70.51884929407267 H 0.0 **** 0.06
24826 C 61.719419302506736 125.28687199827114 130.98934257388754 C 0.0 **** -0.24
24827 H 61.80592158617692 126.35757087980619 131.17657823511132 H 0.0 **** 0.06
24828 H 60.899007816810496 125.10493691029879 130.29484813071036 H 0.0 **** 0.06
24829 H 61.522159941550925 124.77015480456882 131.92835533367207 H 0.0 **** 0.06
24830 H 62.649608723030354 124.91713666990893 130.55951206711887 H 0.0 **** 0.06
24831 C 49.97650592643902 23.861278887031233 121.51371111259834 C 0.0 **** -0.24
24832 H 50.874739940903396 24.147686239982875 122.05995679184622 H 0.0 **** 0.06
24833 H 49.144653887869254 24.493581468840375 121.82545069159022 H 0.0 **** 0.06
24834 H 49.73955310651742 22.818343102290726 121.72654262486765 H 0.0 **** 0.06
24835 H 50.14619477856424 23.984810611603166 120.44375478823395 H 0.0 **** 0.06
24836 C 139.46229913298254 100.58616559471221 85.74479311324787 C 0.0 **** -0.24
24837 H 139.7868387569101 101.31491760900559 86.48830268215397 H 0.0 **** 0.06
24838 H 140.23124463294553 99.82214412100569 85.62514381112915 H 0.0 **** 0.06
24839 H 139.29696470168304 101.08881130561662 84.79248556939814 H 0.0 **** 0.06
24840 H 138.5341512987102 100.11977645062177 86.07524683722453 H 0.0 **** 0.06
24841 C 56.40686893220793 64.89005465106794 43.15310568382938 C 0.0 **** -0.24
24842 H 56.722788171534575 63.99981140739851 43.69699712528329 H 0.0 **** 0.06
24843 H 57.09843597426176 65.7072598582573 43.36072942987754 H 0.0 **** 0.06
24844 H 55.4033588496558 65.17291490257206 43.472271039077086 H 0.0 **** 0.06
24845 H 56.40201769809494 64.68010385296408 42.08391440623002 H 0.0 **** 0.06
24846 C 62.01420219674077 28.778382781755795 3.0703570241202947 C 0.0 **** -0.24
24847 H 61.193092312918566 28.949509740967358 2.373707865253472 H 0.0 **** 0.06
24848 H 62.16452995634873 27.705838272934898 3.1969420776757396 H 0.0 **** 0.06
24849 H 61.77351650702903 29.22837818503919 4.0330970704983855 H 0.0 **** 0.06
24850 H 62.924764794503346 29.229049223429598 2.67474681466134 H 0.0 **** 0.06
24851 C 18.592428277264446 45.20131496450463 118.74497841028604 C 0.0 **** -0.24
24852 H 19.584832893890166 45.53968106054387 118.44792061033066 H 0.0 **** 0.06
24853 H 18.56083130973525 45.07429689269358 119.82807306462665 H 0.0 **** 0.06
24854 H 18.37189470996583 44.250271695430314 118.26064843534657 H 0.0 **** 0.06
24855 H 17.850667702464136 45.94231431073439 118.44431550236543 H 0.0 **** 0.06
24856 C 45.94001781156314 128.40045773147685 22.010214741550698 C 0.0 **** -0.24
24857 H 45.439258327219164 129.36304864947718 21.90966360315005 H 0.0 **** 0.06
24858 H 45.72819057809231 127.786792025864 21.133971868931823 H 0.0 **** 0.06
24859 H 45.57673371062131 127.89373297280619 22.90469090629108 H 0.0 **** 0.06
24860 H 47.01508964719643 128.55791076050323 22.094029812864633 H 0.0 **** 0.06
24861 C 34.109129396750234 117.56943818701181 107.85884120932224 C 0.0 **** -0.24
24862 H 33.79686758999679 117.3190754508747 108.87303447999892 H 0.0 **** 0.06
24863 H 35.081790718581374 118.06239885597019 107.89023729297094 H 0.0 **** 0.06
24864 H 33.37701230904679 118.23955641276972 107.40909573034315 H 0.0 **** 0.06
24865 H 34.18177704604187 116.6582500318059 107.2662837871759 H 0.0 **** 0.06
24866 C 61.52431115890681 1.114175418994968 8.180660687340445 C 0.0 **** -0.24
24867 H 62.242409666385896 1.6000859439037498 7.5194909455386245 H 0.0 **** 0.06
24868 H 60.705552944165646 0.7061835624221828 7.588904420840056 H 0.0 **** 0.06
24869 H 61.13253941055527 1.8448305765266788 8.888351182721173 H 0.0 **** 0.06
24870 H 62.01760172483719 0.30929492686681925 8.72427695415832 H 0.0 **** 0.06
24871 C 22.0106066591822 75.54860228364177 40.50247537106134 C 0.0 **** -0.24
24872 H 21.75143436264875 76.24954873728632 39.71008619213168 H 0.0 **** 0.06
24873 H 22.585828013212335 76.06533167577012 41.270684341727105 H 0.0 **** 0.06
24874 H 22.607620311900234 74.73589333676657 40.08713957880158 H 0.0 **** 0.06
24875 H 21.09925236928592 75.14304357803715 40.94113624611748 H 0.0 **** 0.06
24876 C 53.559949884350175 39.04679846309432 95.70998678512348 C 0.0 **** -0.24
24877 H 53.64009401925372 38.031619090610235 95.3210476333727 H 0.0 **** 0.06
24878 H 54.55724430341414 39.46419304373518 95.84578245943067 H 0.0 **** 0.06
24879 H 53.039094841178496 39.02821894530118 96.66755388061506 H 0.0 **** 0.06
24880 H 53.00088361307971 39.661976485981455 95.00490820629028 H 0.0 **** 0.06
24881 C 48.3279902942232 30.72391294273254 84.77869271089483 C 0.0 **** -0.24
24882 H 48.936613563420636 29.861349547655635 84.50507243631392 H 0.0 **** 0.06
24883 H 47.35849002574402 30.65498689949979 84.28368523943377 H 0.0 **** 0.06
24884 H 48.83283046109405 31.63784439466889 84.46593785987014 H 0.0 **** 0.06
24885 H 48.18451285080242 30.73789972773006 85.85906972140933 H 0.0 **** 0.06
24886 C 68.63508548153254 91.6564883112343 83.42441624487415 C 0.0 **** -0.24
24887 H 67.764705942386 91.06801748068993 83.13332269061968 H 0.0 **** 0.06
24888 H 68.70987333255778 91.68109775416366 84.51156345130462 H 0.0 **** 0.06
24889 H 68.53088036626087 92.67242251864103 83.04318024685543 H 0.0 **** 0.06
24890 H 69.53493427493132 91.20369891153308 83.00838043734541 H 0.0 **** 0.06
24891 C 29.268526850774037 40.255011507783045 3.9669990593995728 C 0.0 **** -0.24
24892 H 28.548362392003014 41.07308231267374 3.9925573380772903 H 0.0 **** 0.06
24893 H 30.167162289904184 40.545265886404415 4.511143001936478 H 0.0 **** 0.06
24894 H 29.526546673041082 40.03096963724982 2.931660982330314 H 0.0 **** 0.06
24895 H 28.830841844244333 39.371573759651525 4.4317080775274285 H 0.0 **** 0.06
24896 C 103.41520886443608 56.293938248685166 124.49386615223919 C 0.0 **** -0.24
24897 H 102.41098388693995 56.647728830305695 124.26575387913141 H 0.0 **** 0.06
24898 H 103.52246338182665 56.17694551696091 125.57264050420102 H 0.0 **** 0.06
24899 H 104.14658068034983 57.016146690034105 124.13253101042102 H 0.0 **** 0.06
24900 H 103.58147650465737 55.33326043755338 124.00620015700625 H 0.0 **** 0.06
24901 C 12.97420062894821 136.63860840591832 84.595065919281 C 0.0 **** -0.24
24902 H 13.77644357073558 137.08672492250798 84.01020894993718 H 0.0 **** 0.06
24903 H 12.119689905780945 137.31472978138828 84.61713838030673 H 0.0 **** 0.06
24904 H 13.322301390852033 136.45821233336014 85.61217654188137 H 0.0 **** 0.06
24905 H 12.678157985100427 135.69254032058478 84.14074018718084 H 0.0 **** 0.06
24906 C 37.191710016830804 115.72330687987974 2.1713861772713585 C 0.0 **** -0.24
24907 H 36.10276191632516 115.6914108455787 2.197473487786908 H 0.0 **** 0.06
24908 H 37.51688058708616 116.69447544136202 1.795649955538579 H 0.0 **** 0.06
24909 H 37.56289612696297 114.93651875401352 1.5156528807137875 H 0.0 **** 0.06
24910 H 37.583741292453695 115.57367974427873 3.1780023654359297 H 0.0 **** 0.06
24911 C 82.27446589546875 58.51463271024883 28.113691253195896 C 0.0 **** -0.24
24912 H 81.60917720912173 59.37808479443416 28.131812383290026 H 0.0 **** 0.06
24913 H 83.25299406833699 58.818131090457285 27.74164657567553 H 0.0 **** 0.06
24914 H 81.85828247879155 57.74832730232254 27.459623758386343 H 0.0 **** 0.06
24915 H 82.37729975581854 58.11421879633136 29.123073174694255 H 0.0 **** 0.06
24916 C 74.36537460239124 137.4902347035952 91.16449384003577 C 0.0 **** -0.24
24917 H 74.01136842210539 138.08473607126157 92.00676021554759 H 0.0 **** 0.06
24918 H 73.52256547069223 136.97397580161422 90.70510794493423 H 0.0 **** 0.06
24919 H 75.09128971411602 136.75797887130932 91.51718424052125 H 0.0 **** 0.06
24920 H 74.83579344559107 138.14456181875937 90.431083994917 H 0.0 **** 0.06
24921 C 21.986421994724537 99.18859235416528 23.14921303051105 C 0.0 **** -0.24
24922 H 21.697508441907075 98.24201224124872 23.605968923331744 H 0.0 **** 0.06
24923 H 23.043576725802154 99.3768815256243 23.342466900352264 H 0.0 **** 0.06
24924 H 21.38958369697488 99.99473633565783 23.57608635213481 H 0.0 **** 0.06
24925 H 21.815919011513486 99.14027868997734 22.074324495961605 H 0.0 **** 0.06
24926 C 42.65347781979315 88.80080337828963 40.64822266318433 C 0.0 **** -0.24
24927 H 41.980841552222785 88.17750619373894 41.23723451172775 H 0.0 **** 0.06
24928 H 43.423160344321985 88.17619375444386 40.1942584038097 H 0.0 **** 0.06
24929 H 43.12257485713852 89.5415599977309 41.296087243278535 H 0.0 **** 0.06
24930 H 42.08770730141302 89.30681132467342 39.86655807200077 H 0.0 **** 0.06
24931 C 115.3502857971545 28.681219802474537 29.60047853014622 C 0.0 **** -0.24
24932 H 115.09722270337934 29.325169725481764 28.75964718014555 H 0.0 **** 0.06
24933 H 116.01115828700378 29.217355423168293 30.2832472638526 H 0.0 **** 0.06
24934 H 115.85360642636365 27.786008367633578 29.23462644451979 H 0.0 **** 0.06
24935 H 114.43921476170206 28.39620118911116 30.12738923470164 H 0.0 **** 0.06
24936 C 4.442908699435179 49.80474306669146 51.22130458893133 C 0.0 **** -0.24
24937 H 5.106262377642224 49.35215036978407 51.95733079748403 H 0.0 **** 0.06
24938 H 3.4398698163641086 49.392937255272216 51.333740696786464 H 0.0 **** 0.06
24939 H 4.813463888616269 49.5907034084172 50.218443279600365 H 0.0 **** 0.06
24940 H 4.413118875931076 50.88425011483507 51.37487239239873 H 0.0 **** 0.06
24941 C 58.51276078856206 142.4305843421783 130.51024015937384 C 0.0 **** -0.24
24942 H 58.36722298397103 143.04641695778236 131.3979534291276 H 0.0 **** 0.06
24943 H 58.351571364620355 141.3825722504189 130.76508437059286 H 0.0 **** 0.06
24944 H 59.52866793184003 142.56268458457828 130.13946387890977 H 0.0 **** 0.06
24945 H 57.80314562071089 142.73100772267782 129.73975980671048 H 0.0 **** 0.06
24946 C 17.302939300871827 96.63656753261024 136.89000121278747 C 0.0 **** -0.24
24947 H 17.56360481521247 97.57603734915197 137.3764945956592 H 0.0 **** 0.06
24948 H 17.1102759865623 95.87599269775194 137.64819958209281 H 0.0 **** 0.06
24949 H 18.127693651220852 96.3153610446611 136.25467806413639 H 0.0 **** 0.06
24950 H 16.409661733464844 96.77750262907745 136.28198694011192 H 0.0 **** 0.06
24951 C 73.13084428393852 67.4117667358156 141.44024793036348 C 0.0 **** -0.24
24952 H 72.79293344880085 66.38572040292672 141.28842181325425 H 0.0 **** 0.06
24953 H 74.20979389866763 67.46209323908832 141.2970982636906 H 0.0 **** 0.06
24954 H 72.88203492440239 67.72903930447897 142.4531585562415 H 0.0 **** 0.06
24955 H 72.63666164836441 68.06599472307144 140.72169370178682 H 0.0 **** 0.06
24956 C 57.04593497164484 89.23906082931629 45.17844582718659 C 0.0 **** -0.24
24957 H 57.41393621050047 88.21663185623264 45.25641329199438 H 0.0 **** 0.06
24958 H 57.091725274486436 89.71711649255597 46.157428446251416 H 0.0 **** 0.06
24959 H 56.01421983012135 89.22818357577201 44.82792704219584 H 0.0 **** 0.06
24960 H 57.66405468190614 89.79537571370666 44.47292493967656 H 0.0 **** 0.06
24961 C 88.8811318703462 35.2618979847469 103.10806658582258 C 0.0 **** -0.24
24962 H 89.89048398861469 34.85475392187853 103.16789894658116 H 0.0 **** 0.06
24963 H 88.41195943586612 34.932697119350955 102.18027029041698 H 0.0 **** 0.06
24964 H 88.92653443812347 36.35100582701513 103.1255202243865 H 0.0 **** 0.06
24965 H 88.29533689558617 34.908556506323485 103.95695819629657 H 0.0 **** 0.06
24966 C 92.476181181449 34.96317877968982 79.41750886471706 C 0.0 **** -0.24
24967 H 92.21842166097962 35.3794933654266 80.39152329347996 H 0.0 **** 0.06
24968 H 91.65289595408665 35.1273470499602 78.72371060682306 H 0.0 **** 0.06
24969 H 92.66005650189513 33.8935757948638 79.51815285555668 H 0.0 **** 0.06
24970 H 93.37408159047597 35.45159283465295 79.04024977744507 H 0.0 **** 0.06
24971 C 112.64972519109014 4.921495935536996 129.47516569925568 C 0.0 **** -0.24
24972 H 112.9420637972776 3.926353758217232 129.80977751408585 H 0.0 **** 0.06
24973 H 113.22385266919886 5.672126969778844 130.0205936900398 H 0.0 **** 0.06
24974 H 111.58608385746791 5.070824365995776 129.66330944804218 H 0.0 **** 0.06
24975 H 112.84687086101926 5.018325928137813 128.40751667714227 H 0.0 **** 0.06
24976 C 110.31934773166483 35.84907427928846 18.942193157555437 C 0.0 **** -0.24
24977 H 110.59709396159514 34.83154724107739 18.66638040327939 H 0.0 **** 0.06
24978 H 110.18749947708363 36.447029913446386 18.039192553056893 H 0.0 **** 0.06
24979 H 111.10795728873802 36.28685515680593 19.555459685198116 H 0.0 **** 0.06
24980 H 109.38807855774832 35.83222205533315 19.50644711610869 H 0.0 **** 0.06
24981 C 138.06098714721253 75.0297963496846 33.61993280478427 C 0.0 **** -0.24
24982 H 137.99441046525135 74.86654919455421 32.543712631263276 H 0.0 **** 0.06
24983 H 137.17168505003906 75.560845691962 33.96198155806317 H 0.0 **** 0.06
24984 H 138.9471197216675 75.62391847096119 33.84211479993772 H 0.0 **** 0.06
24985 H 138.12970066376806 74.06948212654495 34.129403973047914 H 0.0 **** 0.06
24986 C 79.6683109259687 73.54014171576003 124.07694191698339 C 0.0 **** -0.24
24987 H 79.61206228783402 73.39281773084429 125.15568407815113 H 0.0 **** 0.06
24988 H 78.96211874726104 74.31462976865474 123.77908671365846 H 0.0 **** 0.06
24989 H 79.42084207962489 72.60695810818362 123.57033117060615 H 0.0 **** 0.06
24990 H 80.67901921216077 73.84449890074178 123.80393021998476 H 0.0 **** 0.06
24991 C 68.52152378110415 98.67667529214096 52.692642622927906 C 0.0 **** -0.24
24992 H 68.70438975212343 98.90069331166607 51.64192247005056 H 0.0 **** 0.06
24993 H 68.37729292221456 99.60742419980406 53.242048541505426 H 0.0 **** 0.06
24994 H 69.37696226225242 98.14027088683073 53.10330820156628 H 0.0 **** 0.06
24995 H 67.62788936100705 98.05920596400671 52.78228658001902 H 0.0 **** 0.06
24996 C 26.009432339609987 29.05394833266422 44.4322493167772 C 0.0 **** -0.24
24997 H 26.122432109089885 30.0752202217586 44.79436480144277 H 0.0 **** 0.06
24998 H 25.090881053457565 28.625374021009662 44.833808172939996 H 0.0 **** 0.06
24999 H 26.862031767041316 28.456853307077807 44.7578513786647 H 0.0 **** 0.06
25000 H 25.963653583431096 29.057193663928103 43.343221920861055 H 0.0 **** 0.06
25001 C 47.8521062448189 46.53648226304644 24.882433341773293 C 0.0 **** -0.24
25002 H 48.12075856964795 45.583420392280786 24.425643519877383 H 0.0 **** 0.06
25003 H 47.00046236646435 46.964797194743255 24.353042220164504 H 0.0 **** 0.06
25004 H 48.69863987604414 47.21939636595397 24.823526941651586 H 0.0 **** 0.06
25005 H 47.58697857637725 46.37523691699435 25.927414758803266 H 0.0 **** 0.06
25006 C 0.7436605253068649 63.49434824574932 123.27798850790123 C 0.0 **** -0.24
25007 H 0.22990035844421186 63.216149886410605 124.19814396056398 H 0.0 **** 0.06
25008 H 0.21502277663924474 63.07054663695122 122.42453247791627 H 0.0 **** 0.06
25009 H 1.763990626879405 63.11071316682575 123.3019997151502 H 0.0 **** 0.06
25010 H 0.7659670357203936 64.57998869509612 123.18971575756737 H 0.0 **** 0.06
25011 C 110.97907205512682 21.33518988614634 85.27935026964295 C 0.0 **** -0.24
25012 H 111.30472939525824 22.20863118340415 84.71483501488991 H 0.0 **** 0.06
25013 H 110.55839752413492 20.597435338078526 84.59632754115036 H 0.0 **** 0.06
25014 H 110.22056635633488 21.633331266941042 86.00337909019862 H 0.0 **** 0.06
25015 H 111.83118473242125 20.90309696888525 85.80288301874 H 0.0 **** 0.06
25016 C 0.373274747099515 104.78185016390103 28.65030321186468 C 0.0 **** -0.24
25017 H 0.9080203270948459 103.86841020247226 28.391327407942633 H 0.0 **** 0.06
25018 H 0.9238563724603637 105.31729474707714 29.425259319563537 H 0.0 **** 0.06
25019 H -0.6208272263731942 104.52901320607867 29.01910619307695 H 0.0 **** 0.06
25020 H 0.2836421995115188 105.41402875953696 27.7663268719419 H 0.0 **** 0.06
25021 C 43.510298786445446 16.313643160795806 21.24180606591915 C 0.0 **** -0.24
25022 H 42.53882542222499 16.30235626940049 20.749311464472896 H 0.0 **** 0.06
25023 H 43.82839290107211 15.29004582831206 21.44209978303855 H 0.0 **** 0.06
25024 H 43.43408941915118 16.86131865964751 22.18188352967043 H 0.0 **** 0.06
25025 H 44.239848517495886 16.80264131431659 20.595601818893172 H 0.0 **** 0.06
25026 C 118.2760215815817 13.8617350137647 18.263583752558958 C 0.0 **** -0.24
25027 H 119.16166579535813 13.278282342631883 18.512672387195494 H 0.0 **** 0.06
25028 H 117.39091189095807 13.363971884482737 18.659594604889747 H 0.0 **** 0.06
25029 H 118.1904877646085 13.94834464265631 17.180201708397448 H 0.0 **** 0.06
25030 H 118.3610208754021 14.856341185287874 18.701866309753143 H 0.0 **** 0.06
25031 C 113.67308957186629 1.3626827688037366 53.17286012271306 C 0.0 **** -0.24
25032 H 114.004614720902 0.32844213226014674 53.08032754095481 H 0.0 **** 0.06
25033 H 114.00552233292638 1.9295046746659175 52.3034998635152 H 0.0 **** 0.06
25034 H 114.09619875166322 1.8010427491538294 54.07662781440287 H 0.0 **** 0.06
25035 H 112.5846021182175 1.390400708430338 53.23141535125295 H 0.0 **** 0.06
25036 C 97.60736979921649 132.41297342281823 74.01920639914343 C 0.0 **** -0.24
25037 H 97.27702384373754 132.94602514553293 74.91019027348433 H 0.0 **** 0.06
25038 H 96.73836711316474 132.04178153621777 73.4749997698272 H 0.0 **** 0.06
25039 H 98.23774040108563 131.5731518518333 74.31106512962656 H 0.0 **** 0.06
25040 H 98.17486688487585 133.0892906498883 73.38089071685738 H 0.0 **** 0.06
25041 C 55.8449987937682 35.783026046335664 47.04265216142721 C 0.0 **** -0.24
25042 H 56.861002991317704 36.1768250677882 47.06703843751103 H 0.0 **** 0.06
25043 H 55.768558835164626 34.93255578854543 47.72165603543016 H 0.0 **** 0.06
25044 H 55.60322988780317 35.46206449833133 46.028976958660735 H 0.0 **** 0.06
25045 H 55.14697697170294 36.560121216748385 47.35374944414775 H 0.0 **** 0.06
25046 C 73.20308294080665 21.95793309624466 29.106262425147264 C 0.0 **** -0.24
25047 H 73.35611285528117 20.87921243437978 29.134958516300742 H 0.0 **** 0.06
25048 H 72.25239734892207 22.17674109191782 28.62029961651777 H 0.0 **** 0.06
25049 H 74.01329480670965 22.425076838026797 28.547568146802604 H 0.0 **** 0.06
25050 H 73.18977850686315 22.34917005177067 30.12326906661235 H 0.0 **** 0.06
25051 C 94.71045926053087 40.675344005177635 74.78985204431217 C 0.0 **** -0.24
25052 H 95.15214894469307 41.196901771674874 75.63883119937374 H 0.0 **** 0.06
25053 H 95.40140468885424 39.911440451395634 74.43207179119064 H 0.0 **** 0.06
25054 H 94.5102932453316 41.388843449861895 73.98965077903317 H 0.0 **** 0.06
25055 H 93.77666909207234 40.204667364399825 75.09868913979624 H 0.0 **** 0.06
25056 C 38.35881597463154 69.08384704249059 141.31349827898717 C 0.0 **** -0.24
25057 H 39.335903677080324 69.15869754546563 141.78969873599186 H 0.0 **** 0.06
25058 H 37.976614404223 68.06843784146295 141.4273055595723 H 0.0 **** 0.06
25059 H 38.45118023943019 69.32148894245299 140.25397194873904 H 0.0 **** 0.06
25060 H 37.67152438139345 69.78580862651748 141.7844611707824 H 0.0 **** 0.06
25061 C 29.58757587972407 99.99981747616181 18.887524370259392 C 0.0 **** -0.24
25062 H 28.88897876180414 100.28490877842728 18.10201381289557 H 0.0 **** 0.06
25063 H 29.68477918139009 100.81879974376403 19.60166759869248 H 0.0 **** 0.06
25064 H 30.561169473098737 99.78289729027728 18.447850569753292 H 0.0 **** 0.06
25065 H 29.215239867788895 99.11304743833944 19.400249131735045 H 0.0 **** 0.06
25066 C 104.88640898047754 80.4510001411925 43.7077944919825 C 0.0 **** -0.24
25067 H 104.61286473486118 79.42119193425313 43.93693743313986 H 0.0 **** 0.06
25068 H 103.99695903104853 81.0065272785472 43.41267379146136 H 0.0 **** 0.06
25069 H 105.60939373691244 80.46181433678676 42.89163395125959 H 0.0 **** 0.06
25070 H 105.3290813674021 80.91351577693116 44.58999761121103 H 0.0 **** 0.06
25071 C 47.81018478646075 83.4960685672294 23.299528445813706 C 0.0 **** -0.24
25072 H 46.85895955986581 83.976823409476 23.52561294600295 H 0.0 **** 0.06
25073 H 47.63969613806006 82.6468676781966 22.637630132874875 H 0.0 **** 0.06
25074 H 48.271321139074644 83.1499569947576 24.225049909983767 H 0.0 **** 0.06
25075 H 48.47133971899092 84.21190017507128 22.8096118973549 H 0.0 **** 0.06
25076 C 90.52427093024232 101.987035120369 70.26710275605176 C 0.0 **** -0.24
25077 H 89.55749068669238 102.21585951962612 69.81994595791818 H 0.0 **** 0.06
25078 H 91.32001170785938 102.28169542808322 69.58275063482232 H 0.0 **** 0.06
25079 H 90.58984531015741 100.91609715241265 70.4601591787902 H 0.0 **** 0.06
25080 H 90.62927335629715 102.5317750264332 71.20436191954164 H 0.0 **** 0.06
25081 C 143.0257092809915 94.36154185294275 28.29367330706782 C 0.0 **** -0.24
25082 H 142.97974630965402 94.09019664628899 29.348544435509126 H 0.0 **** 0.06
25083 H 143.4199930132754 93.52217822316427 27.71955659650743 H 0.0 **** 0.06
25084 H 143.67939007572218 95.22563488450508 28.170370452349857 H 0.0 **** 0.06
25085 H 142.0260432247699 94.60903817331139 27.938163539870317 H 0.0 **** 0.06
25086 C 29.08277462166754 71.6859299894592 100.82933172651306 C 0.0 **** -0.24
25087 H 28.891526457564083 71.56361182140068 99.76366749161909 H 0.0 **** 0.06
25088 H 30.033767765348898 71.21595049058595 101.08366475349399 H 0.0 **** 0.06
25089 H 28.280927031725923 71.21604421552476 101.398261132626 H 0.0 **** 0.06
25090 H 29.12689568266609 72.74774066363736 101.07084633022893 H 0.0 **** 0.06
25091 C 50.093338087346254 135.65866627462148 99.1549277647425 C 0.0 **** -0.24
25092 H 49.553161362146156 134.73384133958635 98.95474334825039 H 0.0 **** 0.06
25093 H 50.3502655130205 136.13972689108346 98.21065930710557 H 0.0 **** 0.06
25094 H 51.004851979065634 135.43444762746634 99.70912026452882 H 0.0 **** 0.06
25095 H 49.464244424937036 136.3261042122031 99.74318419165411 H 0.0 **** 0.06
25096 C 44.47365478754344 55.48353591174087 67.10410463520522 C 0.0 **** -0.24
25097 H 45.3770250600201 55.90151901880155 67.54880137308946 H 0.0 **** 0.06
25098 H 44.171099062748496 54.59752899113788 67.66295855155039 H 0.0 **** 0.06
25099 H 44.672711396208314 55.21059948143824 66.06810365161571 H 0.0 **** 0.06
25100 H 43.67578114096814 56.22498359751346 67.13743392616313 H 0.0 **** 0.06
25101 C 6.12414814833145 106.91426300175566 2.6860521143946983 C 0.0 **** -0.24
25102 H 5.1070850453037515 106.84946428318268 3.071360591135061 H 0.0 **** 0.06
25103 H 6.8252525049898445 106.97536727501843 3.5183632592295453 H 0.0 **** 0.06
25104 H 6.221187306621047 107.80389795412496 2.063610182663325 H 0.0 **** 0.06
25105 H 6.344083955394684 106.0281116582476 2.08991372983715 H 0.0 **** 0.06
25106 C 93.84036841222125 98.76548760594916 133.833235020827 C 0.0 **** -0.24
25107 H 94.38608729667564 98.13060338151811 133.13547660853752 H 0.0 **** 0.06
25108 H 94.51141822373394 99.5250041173269 134.23502568518302 H 0.0 **** 0.06
25109 H 93.45010496794185 98.15638605439051 134.64866352542916 H 0.0 **** 0.06
25110 H 93.01386568727713 99.24846405044794 133.31289584923854 H 0.0 **** 0.06
25111 C 36.74743680295665 90.45337124186341 97.23231375709412 C 0.0 **** -0.24
25112 H 36.185441645382966 90.31988912586127 96.30875498846791 H 0.0 **** 0.06
25113 H 36.26930796377253 91.22158641999272 97.84080713421284 H 0.0 **** 0.06
25114 H 37.76703930207446 90.75976659516033 96.99620027510065 H 0.0 **** 0.06
25115 H 36.76933899150692 89.51312153275643 97.78405981563087 H 0.0 **** 0.06
25116 C 35.57137659422697 60.60624213051379 100.93365293730483 C 0.0 **** -0.24
25117 H 35.340098385809156 60.860837465853535 99.89917504132538 H 0.0 **** 0.06
25118 H 36.624017358821405 60.334315105225116 101.01500422766696 H 0.0 **** 0.06
25119 H 34.953311750852734 59.764261986376326 101.24619606265895 H 0.0 **** 0.06
25120 H 35.3661091372566 61.46464879254617 101.57309578898749 H 0.0 **** 0.06
25121 C 136.20193623304945 18.997571488797888 143.68544284827544 C 0.0 **** -0.24
25122 H 136.60845552720372 18.020268719389264 143.946721015196 H 0.0 **** 0.06
25123 H 136.55347902029462 19.74007359748873 144.40207818042137 H 0.0 **** 0.06
25124 H 135.11284337552715 18.956427254863 143.7100357343625 H 0.0 **** 0.06
25125 H 136.5331427568313 19.272361775125063 142.68484334822196 H 0.0 **** 0.06
25126 C 80.9779168224851 63.28456029223136 111.24490133229334 C 0.0 **** -0.24
25127 H 81.83258116585779 62.61662823042862 111.13840480794373 H 0.0 **** 0.06
25128 H 80.38590094335844 63.26652900511969 110.32971775529187 H 0.0 **** 0.06
25129 H 81.33194086177659 64.299619498886 111.4294650194892 H 0.0 **** 0.06
25130 H 80.36232382648174 62.957110888234624 112.08307796905036 H 0.0 **** 0.06
25131 C 25.873236150417483 53.49989687222602 80.3472383842564 C 0.0 **** -0.24
25132 H 26.511352674024465 54.335943091955556 80.63254505043398 H 0.0 **** 0.06
25133 H 25.285594054032174 53.77385484251164 79.47117863585237 H 0.0 **** 0.06
25134 H 25.204026743527322 53.25622576547495 81.1724438503789 H 0.0 **** 0.06
25135 H 26.49197113008597 52.633563788962206 80.1127860003607 H 0.0 **** 0.06
25136 C 130.40666874385104 12.17425487546555 108.8656883139979 C 0.0 **** -0.24
25137 H 131.27833477594785 11.532516598756075 108.73903844140635 H 0.0 **** 0.06
25138 H 130.38082975666882 12.553367465031414 109.88812313358697 H 0.0 **** 0.06
25139 H 129.50066096164804 11.600795893051838 108.66758069776405 H 0.0 **** 0.06
25140 H 130.4667722593126 13.010946199281904 108.17016184952705 H 0.0 **** 0.06
25141 C 141.94682696376637 143.3361545784444 36.409427669049165 C 0.0 **** -0.24
25142 H 142.11309609435438 142.5034533577375 37.09350163333548 H 0.0 **** 0.06
25143 H 142.42557148799457 144.23171010667886 36.80446163764236 H 0.0 **** 0.06
25144 H 140.87629999872468 143.51114472700715 36.305907964268755 H 0.0 **** 0.06
25145 H 142.37197387954748 143.09522680584598 35.43500537187708 H 0.0 **** 0.06
25146 C 92.6734923267442 115.99935029524882 78.01286463711364 C 0.0 **** -0.24
25147 H 92.0053873931889 115.41389739494288 78.64445199622708 H 0.0 **** 0.06
25148 H 93.34296109932046 115.32912302138256 77.47381746447408 H 0.0 **** 0.06
25149 H 93.25910586460887 116.67744426648694 78.63369573372012 H 0.0 **** 0.06
25150 H 92.08457361259153 116.57647853459245 77.29964050597553 H 0.0 **** 0.06
25151 C 128.04179227844867 109.5863360220511 134.83884157458368 C 0.0 **** -0.24
25152 H 128.51692826157452 110.16196443676817 134.044915512305 H 0.0 **** 0.06
25153 H 128.26197427647338 110.04652652035459 135.8026950595063 H 0.0 **** 0.06
25154 H 128.4237620733291 108.56578722256286 134.82717554445549 H 0.0 **** 0.06
25155 H 126.96325048331866 109.57160456360914 134.68095082226733 H 0.0 **** 0.06
25156 C 33.85922471267614 123.90594734843789 87.53983469499714 C 0.0 **** -0.24
25157 H 33.80331316639895 123.73658848188786 86.46436996560041 H 0.0 **** 0.06
25158 H 32.982128411331956 123.47243706157538 88.02149521326189 H 0.0 **** 0.06
25159 H 33.890201738627184 124.97739175873627 87.7378781221858 H 0.0 **** 0.06
25160 H 34.76026679267072 123.43725544182561 87.93568942797879 H 0.0 **** 0.06
25161 C 120.56719818442534 54.399395649370376 23.819296540208683 C 0.0 **** -0.24
25162 H 120.63781049894217 55.131016575558846 24.624817279997558 H 0.0 **** 0.06
25163 H 119.91224092745202 54.78287762990209 23.037137064525496 H 0.0 **** 0.06
25164 H 120.16042025376689 53.4678121114608 24.210512142654323 H 0.0 **** 0.06
25165 H 121.55901828588148 54.21771101400745 23.406756331525457 H 0.0 **** 0.06
25166 C 44.68346950939835 138.76378521311017 42.72861998693506 C 0.0 **** -0.24
25167 H 44.820679304564734 137.84487141966767 42.15816680524736 H 0.0 **** 0.06
25168 H 44.124636101291685 138.54518316868618 43.63912990373558 H 0.0 **** 0.06
25169 H 44.131438240038904 139.4852041576307 42.127842162881734 H 0.0 **** 0.06
25170 H 45.657698663386086 139.17692202796317 42.99029427268829 H 0.0 **** 0.06
25171 C 117.20734074022262 92.67268601352961 12.956043689092795 C 0.0 **** -0.24
25172 H 117.33993828921798 93.75349288656071 12.909726526811326 H 0.0 **** 0.06
25173 H 117.60373855851451 92.21897466021817 12.04742402465957 H 0.0 **** 0.06
25174 H 116.14615378972162 92.44140701727697 13.04505016860898 H 0.0 **** 0.06
25175 H 117.73939493239978 92.27813248505603 13.822595369304395 H 0.0 **** 0.06
25176 C 132.87790654385654 86.32338113297645 94.96875643839235 C 0.0 **** -0.24
25177 H 132.15671592664646 85.7661050846324 95.56678269617038 H 0.0 **** 0.06
25178 H 132.42726173741715 86.58972466826636 94.01245193924632 H 0.0 **** 0.06
25179 H 133.7597137891857 85.705633080459 94.79497416464898 H 0.0 **** 0.06
25180 H 133.1677902300951 87.22910135713703 95.5003523096546 H 0.0 **** 0.06
25181 C 1.2153791907634286 110.23220468459907 60.65486914950327 C 0.0 **** -0.24
25182 H 0.16095731203205332 110.44721089777893 60.48325126161669 H 0.0 **** 0.06
25183 H 1.35413670348251 109.1568270775055 60.75998904190564 H 0.0 **** 0.06
25184 H 1.544961573671742 110.73273636080815 61.565402727080624 H 0.0 **** 0.06
25185 H 1.8015342868674509 110.5940370596427 59.80982154486708 H 0.0 **** 0.06
25186 C 103.80012907790706 131.43956556729427 134.17502066068138 C 0.0 **** -0.24
25187 H 102.90346335852041 131.254504552995 133.5824533974437 H 0.0 **** 0.06
25188 H 104.25894673329944 132.37604634652436 133.8565743680641 H 0.0 **** 0.06
25189 H 104.5049483359717 130.6217472502881 134.03140371127776 H 0.0 **** 0.06
25190 H 103.53033794628601 131.5063729690245 135.2287124501639 H 0.0 **** 0.06
25191 C 125.4257017020129 99.19355974674015 129.8725694919672 C 0.0 **** -0.24
25192 H 125.0414875152832 100.21217858412213 129.8130040012271 H 0.0 **** 0.06
25193 H 124.6170219417611 98.51544837770734 130.14600857707293 H 0.0 **** 0.06
25194 H 126.21146654179502 99.14553439675754 130.62721386357924 H 0.0 **** 0.06
25195 H 125.83310371851408 98.90254819555895 128.9049250726188 H 0.0 **** 0.06
25196 C 101.7488894735252 129.37134186782617 102.32881904836584 C 0.0 **** -0.24
25197 H 100.75194148365183 129.51779930992137 102.74526454209757 H 0.0 **** 0.06
25198 H 101.80952979418886 128.38449123224436 101.87069085479817 H 0.0 **** 0.06
25199 H 102.48987232212957 129.4497362107541 103.12491997145266 H 0.0 **** 0.06
25200 H 101.94283578218744 130.13511233256415 101.57538130974766 H 0.0 **** 0.06
25201 C 6.6637602472837045 49.793510108888086 60.57698585254755 C 0.0 **** -0.24
25202 H 7.152477405137631 49.35985075676325 61.4497217936613 H 0.0 **** 0.06
25203 H 6.908573921149269 50.85396717796223 60.513111075415225 H 0.0 **** 0.06
25204 H 5.583251586920966 49.674434128550416 60.66896373645315 H 0.0 **** 0.06
25205 H 7.008862904341811 49.28518838095604 59.677206974624085 H 0.0 **** 0.06
25206 C 137.41591756450313 73.162388940792 45.29675243112902 C 0.0 **** -0.24
25207 H 137.82466823768482 72.86112209794862 44.3332177967969 H 0.0 **** 0.06
25208 H 138.11088855070136 73.8434000223481 45.78932951944948 H 0.0 **** 0.06
25209 H 137.26789208690946 72.28015439428967 45.920373794822666 H 0.0 **** 0.06
25210 H 136.46080732417417 73.6644763944882 45.145311098028756 H 0.0 **** 0.06
25211 C 118.29780857017143 61.99096393442309 46.53306584975785 C 0.0 **** -0.24
25212 H 117.23541035316835 62.16296052699582 46.70796905253269 H 0.0 **** 0.06
25213 H 118.88176651418216 62.581650286323935 47.24030607573977 H 0.0 **** 0.06
25214 H 118.55124983505364 62.28691094750761 45.51520201961743 H 0.0 **** 0.06
25215 H 118.52156153632687 60.93293164360105 46.67163065103277 H 0.0 **** 0.06
25216 C 68.4828914451625 12.40465242080571 68.60159798580143 C 0.0 **** -0.24
25217 H 67.83869781127723 13.206975127662403 68.9608217560446 H 0.0 **** 0.06
25218 H 68.62502877969224 12.507771623137614 67.52476169109556 H 0.0 **** 0.06
25219 H 68.01879186086197 11.4419579344557 68.8169995143922 H 0.0 **** 0.06
25220 H 69.44857527282649 12.463424301967521 69.10312413896106 H 0.0 **** 0.06
25221 C 127.13445585744604 26.575500931498482 70.59077519557573 C 0.0 **** -0.24
25222 H 127.4067001120318 25.890701872173906 69.78721608763709 H 0.0 **** 0.06
25223 H 127.80232183288246 27.43738706576704 70.57467324911403 H 0.0 **** 0.06
25224 H 127.2241956726437 26.063827638079033 71.5488811870463 H 0.0 **** 0.06
25225 H 126.10638157304123 26.908763401918634 70.45202271497524 H 0.0 **** 0.06
25226 C 0.13836745331205336 68.8951167829229 3.399868930272362 C 0.0 **** -0.24
25227 H -0.5416261837253451 69.7236693475218 3.2020326480980543 H 0.0 **** 0.06
25228 H -0.15215345524968527 68.03438396230344 2.79811027604984 H 0.0 **** 0.06
25229 H 0.09368664174986563 68.63199597103707 4.456867026810357 H 0.0 **** 0.06
25230 H 1.1555089539602612 69.19154734574904 3.143433772634836 H 0.0 **** 0.06
25231 C 134.8207077722345 24.33288786035007 101.90959329612633 C 0.0 **** -0.24
25232 H 133.81100967233942 24.7310470030082 102.01748680257745 H 0.0 **** 0.06
25233 H 134.8269438540299 23.563123504356867 101.1384345529108 H 0.0 **** 0.06
25234 H 135.14347028570072 23.902098377694017 102.85702015140012 H 0.0 **** 0.06
25235 H 135.4998688579476 25.13741089030539 101.62648230182087 H 0.0 **** 0.06
25236 C 54.57246640091874 100.87529720428616 96.97729335124376 C 0.0 **** -0.24
25237 H 53.5578224052568 101.07223824639775 97.32254783365468 H 0.0 **** 0.06
25238 H 55.183193257759186 100.54222541075829 97.81795612184212 H 0.0 **** 0.06
25239 H 54.99716501367638 101.78763457267 96.55934062559385 H 0.0 **** 0.06
25240 H 54.55222631410335 100.0998119468903 96.21281982778294 H 0.0 **** 0.06
25241 C 60.49446806652827 80.54613574533447 81.86458702376706 C 0.0 **** -0.24
25242 H 61.03653178011683 81.48543478052541 81.75626741219438 H 0.0 **** 0.06
25243 H 60.34206258480566 80.09980344155635 80.88091735102859 H 0.0 **** 0.06
25244 H 59.52758682339706 80.73673621142132 82.33054950021057 H 0.0 **** 0.06
25245 H 61.07170776555412 79.86393881757756 82.4885834758918 H 0.0 **** 0.06
25246 C 135.4205500174347 87.36728164480128 4.3362241892504585 C 0.0 **** -0.24
25247 H 136.10095571338476 86.99614714847421 3.5704499879878995 H 0.0 **** 0.06
25248 H 135.47650428660313 88.45537931137754 4.374479957039966 H 0.0 **** 0.06
25249 H 135.70312902783948 86.95500863600397 5.3048758116997305 H 0.0 **** 0.06
25250 H 134.40245863166132 87.06372009055603 4.095001979195217 H 0.0 **** 0.06
25251 C 97.3495582646843 20.136850499380195 34.72332598901781 C 0.0 **** -0.24
25252 H 97.31013000401904 21.149612646996893 35.124410944372954 H 0.0 **** 0.06
25253 H 96.3355830938192 19.75646015294523 34.59590748076661 H 0.0 **** 0.06
25254 H 97.89467166379077 19.493204283028845 35.41331714920804 H 0.0 **** 0.06
25255 H 97.85756446986821 20.148035368486596 33.758285807688026 H 0.0 **** 0.06
25256 C 43.77281735070741 99.82779918487364 88.57280852869354 C 0.0 **** -0.24
25257 H 44.80824358304905 99.71946059797148 88.89590011028145 H 0.0 **** 0.06
25258 H 43.40550415273175 98.86932983623439 88.20410881246909 H 0.0 **** 0.06
25259 H 43.71698937147593 100.57033321400343 87.7769647391707 H 0.0 **** 0.06
25260 H 43.161747562881516 100.15107511448753 89.41585022833704 H 0.0 **** 0.06
25261 C 2.296707509452176 131.2302773773061 128.40363563105785 C 0.0 **** -0.24
25262 H 3.146039715565678 131.5840261370843 127.8184984254429 H 0.0 **** 0.06
25263 H 2.564015085012329 130.30122170268345 128.90712258191604 H 0.0 **** 0.06
25264 H 1.4484277435901163 131.05499147034368 127.7419459850895 H 0.0 **** 0.06
25265 H 2.029488966454892 131.98281749601028 129.14602403995463 H 0.0 **** 0.06
25266 C 57.853821972864694 4.248493016722723 102.74407037845022 C 0.0 **** -0.24
25267 H 58.40696365367711 5.113827470327195 103.10830853103039 H 0.0 **** 0.06
25268 H 58.55530669461871 3.481209057262433 102.41760694138597 H 0.0 **** 0.06
25269 H 57.22337488460482 4.546497605047108 101.9062191758101 H 0.0 **** 0.06
25270 H 57.22965754958608 3.8526863633479635 103.54613136449628 H 0.0 **** 0.06
25271 C 105.06842729679745 140.22024437585767 63.63879833750515 C 0.0 **** -0.24
25272 H 104.91909794782774 141.28525514870785 63.460846938113335 H 0.0 **** 0.06
25273 H 104.53017245526068 139.92408599159683 64.53932309853936 H 0.0 **** 0.06
25274 H 106.13252058665869 140.02011753401737 63.768770117802646 H 0.0 **** 0.06
25275 H 104.69307882490983 139.6528505823611 62.787950145549544 H 0.0 **** 0.06
25276 C 106.2433094644608 143.91897245950145 126.81975539435123 C 0.0 **** -0.24
25277 H 105.26035286960402 144.36256100027984 126.98075374887978 H 0.0 **** 0.06
25278 H 106.4773561563712 143.24576873570393 127.64566390999514 H 0.0 **** 0.06
25279 H 106.99389466623077 144.7072441228982 126.76896659390556 H 0.0 **** 0.06
25280 H 106.23972817961229 143.35932386493602 125.88425631179715 H 0.0 **** 0.06
25281 C 66.56033193352911 124.43672023641975 108.38310922704125 C 0.0 **** -0.24
25282 H 65.81256541419923 124.16946167955494 107.63665696575191 H 0.0 **** 0.06
25283 H 66.64446936383997 125.5228698654157 108.44021315185427 H 0.0 **** 0.06
25284 H 67.52393782898245 124.01157569811483 108.10211153594167 H 0.0 **** 0.06
25285 H 66.25934395227515 124.04370996632235 109.35465340830154 H 0.0 **** 0.06
25286 C 44.297247573006004 46.22845777794399 46.602421153536355 C 0.0 **** -0.24
25287 H 44.51877542188163 46.35378407392827 47.66276151013743 H 0.0 **** 0.06
25288 H 43.95239053562628 47.177454979600356 46.189486635789976 H 0.0 **** 0.06
25289 H 43.51903387813145 45.47565677463447 46.480803112511325 H 0.0 **** 0.06
25290 H 45.197140562036495 45.90928298600002 46.07796248284906 H 0.0 **** 0.06
25291 C 15.685211828583988 16.502126799042998 64.45752149934842 C 0.0 **** -0.24
25292 H 14.992970773756156 17.308199511971026 64.69994052317648 H 0.0 **** 0.06
25293 H 16.707719066507764 16.8774772507181 64.49938897891974 H 0.0 **** 0.06
25294 H 15.47457239460806 16.132864508035766 63.45353977045522 H 0.0 **** 0.06
25295 H 15.564566398348859 15.690833346905123 65.1754250532176 H 0.0 **** 0.06
25296 C 60.86976752569002 100.62106012848596 59.028697185518496 C 0.0 **** -0.24
25297 H 61.94611307082572 100.78854028321109 58.98809463989588 H 0.0 **** 0.06
25298 H 60.6570583504553 99.57426659412408 58.80929106470015 H 0.0 **** 0.06
25299 H 60.37600919180626 101.25445107048503 58.291947903404065 H 0.0 **** 0.06
25300 H 60.50146264950352 100.86665191357918 60.02481017819318 H 0.0 **** 0.06
25301 C 88.59497484671186 26.072212762294555 15.915640427286405 C 0.0 **** -0.24
25302 H 87.85517727176745 25.46188252249229 15.396684275653797 H 0.0 **** 0.06
25303 H 88.99963617131198 26.815246236414282 15.227850197499322 H 0.0 **** 0.06
25304 H 89.4008124312191 25.433644605693814 16.278459146255898 H 0.0 **** 0.06
25305 H 88.12224817293821 26.575864483517478 16.75955652836342 H 0.0 **** 0.06
25306 C 40.719296275582906 40.58601866205305 102.91980960705502 C 0.0 **** -0.24
25307 H 39.801105376101724 41.14012151887431 103.11321686327788 H 0.0 **** 0.06
25308 H 40.59260522639046 39.974559451929395 102.0265207960305 H 0.0 **** 0.06
25309 H 40.94157518019036 39.94368787702791 103.77227261109894 H 0.0 **** 0.06
25310 H 41.54057258731463 41.285419169246495 102.76900518969646 H 0.0 **** 0.06
25311 C 112.4855093541544 58.6825946978946 53.063474300134246 C 0.0 **** -0.24
25312 H 113.04940525053397 57.754087261076975 53.152205629479184 H 0.0 **** 0.06
25313 H 112.05426110257562 58.939240986057925 54.0314280976736 H 0.0 **** 0.06
25314 H 111.68891930707426 58.554855689351186 52.33193971594007 H 0.0 **** 0.06
25315 H 113.15200768734141 59.48303050205993 52.73998789330338 H 0.0 **** 0.06
25316 C 108.31130491860362 72.52274757257965 7.774082784872178 C 0.0 **** -0.24
25317 H 107.63705538536225 72.62538066763165 6.923812291851448 H 0.0 **** 0.06
25318 H 108.8846229367132 73.44187845911134 7.8956795272483475 H 0.0 **** 0.06
25319 H 108.99210883020469 71.6893128411541 7.598955664496998 H 0.0 **** 0.06
25320 H 107.73142115211387 72.3330819905168 8.677420865304953 H 0.0 **** 0.06
25321 C 2.234017946771928 17.504936971820847 27.061605860371174 C 0.0 **** -0.24
25322 H 1.9774770955258987 18.426364348376055 27.584753350337337 H 0.0 **** 0.06
25323 H 1.3242566786412056 17.026531686781816 26.69865170055334 H 0.0 **** 0.06
25324 H 2.7512679728988587 16.831277024872286 27.74477683614589 H 0.0 **** 0.06
25325 H 2.884653654539761 17.73626726684293 26.21835479542665 H 0.0 **** 0.06
25326 C 129.6068704207473 57.09985612073386 139.86001018641522 C 0.0 **** -0.24
25327 H 129.47537444617015 57.133905657194845 140.94093029399482 H 0.0 **** 0.06
25328 H 129.11373485097837 57.96090061774268 139.40766338552174 H 0.0 **** 0.06
25329 H 129.16746956985924 56.18221273770688 139.46905954359912 H 0.0 **** 0.06
25330 H 130.6706090199778 57.123776015948295 139.62219943779297 H 0.0 **** 0.06
25331 C 47.371827134879936 73.61928148923377 23.548360221872656 C 0.0 **** -0.24
25332 H 46.664932901474515 74.02261773135987 22.824259915443406 H 0.0 **** 0.06
25333 H 46.86129784008676 72.90786091694517 24.197847347483446 H 0.0 **** 0.06
25334 H 47.778793113647396 74.43257088915848 24.149646312278264 H 0.0 **** 0.06
25335 H 48.182604482338945 73.11491419551888 23.022780906305115 H 0.0 **** 0.06
25336 C 40.839571050505725 107.67740911572169 74.9587764683929 C 0.0 **** -0.24
25337 H 39.952231261626 107.0447161897615 74.95482187227361 H 0.0 **** 0.06
25338 H 41.67611626464637 107.13149116151963 74.52329218480077 H 0.0 **** 0.06
25339 H 41.081253901966164 107.95764778618941 75.98377479028164 H 0.0 **** 0.06
25340 H 40.64739649006356 108.57604653123677 74.37208774719403 H 0.0 **** 0.06
25341 C 122.02993001488464 21.873664820837256 67.3114138734473 C 0.0 **** -0.24
25342 H 122.64901199597868 22.770213666662634 67.2959694845544 H 0.0 **** 0.06
25343 H 121.29989889774377 21.950298626153796 68.11669810233997 H 0.0 **** 0.06
25344 H 122.66085626413575 20.999605198239365 67.47472268356444 H 0.0 **** 0.06
25345 H 121.51104294627349 21.773853809009324 66.35768335637795 H 0.0 **** 0.06
25346 C 99.29280567351819 10.764163886915412 127.33729327963063 C 0.0 **** -0.24
25347 H 100.3400528202852 10.97177759403013 127.55953843160798 H 0.0 **** 0.06
25348 H 98.71162975600566 11.680681252129432 127.4396620980732 H 0.0 **** 0.06
25349 H 98.91555552044738 10.01472826081124 128.0334207686455 H 0.0 **** 0.06
25350 H 99.20476673200537 10.388861809935918 126.31797322637647 H 0.0 **** 0.06
25351 C 72.78565594479022 64.46730980002195 129.40147475316513 C 0.0 **** -0.24
25352 H 72.75052468185538 64.01694893926921 130.3937175701418 H 0.0 **** 0.06
25353 H 73.65794590337657 65.1167223312401 129.32713438003512 H 0.0 **** 0.06
25354 H 71.88051342277387 65.05367095934494 129.2374302910374 H 0.0 **** 0.06
25355 H 72.85054250283503 63.681924687435966 128.64825442145377 H 0.0 **** 0.06
25356 C 82.42057712973289 111.98621406698491 92.75586082138796 C 0.0 **** -0.24
25357 H 83.11987893202755 111.53021561541492 92.05569280000279 H 0.0 **** 0.06
25358 H 82.6721814122316 111.67874584167568 93.77203923823198 H 0.0 **** 0.06
25359 H 81.40724283808734 111.66366422528371 92.51947331970632 H 0.0 **** 0.06
25360 H 82.48455745846783 113.07148825971952 92.6784829709189 H 0.0 **** 0.06
25361 C 73.49773592848922 120.19021994525995 57.441307598586164 C 0.0 **** -0.24
25362 H 73.55791425092352 119.11527067950409 57.60928530332383 H 0.0 **** 0.06
25363 H 73.59370340690623 120.39763620816636 56.3750559031528 H 0.0 **** 0.06
25364 H 74.30314453976516 120.6877953307342 57.981378514321435 H 0.0 **** 0.06
25365 H 72.5375502408759 120.56123476790738 57.79941558798856 H 0.0 **** 0.06
25366 C 72.56765646815782 22.97738283553015 59.99833415349154 C 0.0 **** -0.24
25367 H 72.23115369823343 22.541007446203366 59.05799629256197 H 0.0 **** 0.06
25368 H 72.11048078038709 23.95837887815972 60.128418969109475 H 0.0 **** 0.06
25369 H 73.652938046976 23.08004250258479 59.983407482438736 H 0.0 **** 0.06
25370 H 72.2750348440301 22.32846881896115 60.824651370065965 H 0.0 **** 0.06
25371 C 128.82490745408228 54.31163802805156 25.4936243823893 C 0.0 **** -0.24
25372 H 128.99579724054055 54.92173826580124 26.38032628164308 H 0.0 **** 0.06
25373 H 129.1552761504013 53.29025954915625 25.68597686759918 H 0.0 **** 0.06
25374 H 129.38709941763273 54.72415915298379 24.655388468289573 H 0.0 **** 0.06
25375 H 127.76226386408932 54.31088191384244 25.252471125651454 H 0.0 **** 0.06
25376 C 44.15453431863659 15.82440104462146 113.34344515538915 C 0.0 **** -0.24
25377 H 43.15575836019059 15.907209676413508 113.77290440169038 H 0.0 **** 0.06
25378 H 44.53279665625112 14.814018177618323 113.49655273736941 H 0.0 **** 0.06
25379 H 44.8180844430737 16.539676992937224 113.82854968957527 H 0.0 **** 0.06
25380 H 44.10784723881116 16.037218829755986 112.27513816221698 H 0.0 **** 0.06
25381 C 88.677220058992 78.41416663883479 130.4198293405352 C 0.0 **** -0.24
25382 H 88.09317401174857 77.91251675200256 129.64849122681574 H 0.0 **** 0.06
25383 H 88.2881739699693 78.14470858928291 131.4026988534052 H 0.0 **** 0.06
25384 H 88.60714980089891 79.49310164542764 130.2843218682724 H 0.0 **** 0.06
25385 H 89.7199013775435 78.10521820379053 130.34452039220469 H 0.0 **** 0.06
25386 C 71.25190602917719 105.94836281587683 18.150435612511274 C 0.0 **** -0.24
25387 H 70.56661957069721 106.28483227339026 17.37191669420315 H 0.0 **** 0.06
25388 H 72.25922819641458 105.87235376191282 17.73954557356609 H 0.0 **** 0.06
25389 H 70.93386526639024 104.97180278241984 18.517317784773866 H 0.0 **** 0.06
25390 H 71.24747292899904 106.66451197864384 18.97161865096689 H 0.0 **** 0.06
25391 C 91.57615439145178 10.728264669593017 19.471691821009948 C 0.0 **** -0.24
25392 H 92.05448381862587 10.277939173103903 18.602159311993248 H 0.0 **** 0.06
25393 H 90.7731835958688 11.388928361023318 19.143424667903354 H 0.0 **** 0.06
25394 H 92.31255194808749 11.301361806374445 20.034294850967875 H 0.0 **** 0.06
25395 H 91.16416691325257 9.943115607974306 20.106789630919202 H 0.0 **** 0.06
25396 C 143.92990849081497 10.79016875760641 58.106755143890396 C 0.0 **** -0.24
25397 H 143.51185114065078 9.784214627972545 58.060871935014546 H 0.0 **** 0.06
25398 H 144.93591592576445 10.74607101604559 58.523852639061445 H 0.0 **** 0.06
25399 H 143.300325151305 11.415484335079725 58.73987136483146 H 0.0 **** 0.06
25400 H 143.9697050782167 11.212332979468243 57.102317229421146 H 0.0 **** 0.06
25401 C 91.39370281734745 58.98030349495153 18.155392804598307 C 0.0 **** -0.24
25402 H 90.37572351117824 58.678441405880164 17.912386146558042 H 0.0 **** 0.06
25403 H 91.79426905016592 58.32308137796916 18.928275557748364 H 0.0 **** 0.06
25404 H 91.3909054237401 60.00869974732396 18.518720872803918 H 0.0 **** 0.06
25405 H 92.01554269536926 58.913490917496844 17.261875482982305 H 0.0 **** 0.06
25406 C 135.72486419299412 127.23761556818684 61.980533864640336 C 0.0 **** -0.24
25407 H 136.6581944031741 127.35272742403504 62.53180501619772 H 0.0 **** 0.06
25408 H 135.15443038943874 126.41078139716024 62.40268595701343 H 0.0 **** 0.06
25409 H 135.94543360549451 127.0314477116438 60.9333123820129 H 0.0 **** 0.06
25410 H 135.1438700007149 128.15741502288932 62.05482822434425 H 0.0 **** 0.06
25411 C 75.07840928941451 140.8736165197062 128.96088009925802 C 0.0 **** -0.24
25412 H 74.76374544462783 140.10403006632825 128.25653272720808 H 0.0 **** 0.06
25413 H 74.3956276207841 141.7219248990955 128.89978144019852 H 0.0 **** 0.06
25414 H 76.08839509912883 141.20222204133393 128.7129909448165 H 0.0 **** 0.06
25415 H 75.06550860984933 140.4682094448261 129.9721701340024 H 0.0 **** 0.06
25416 C 122.23556340014777 79.44372504785461 54.868134911471145 C 0.0 **** -0.24
25417 H 122.86648693009319 78.56415262493006 54.98995314035474 H 0.0 **** 0.06
25418 H 121.27809517297693 79.14754288190896 54.43866122131246 H 0.0 **** 0.06
25419 H 122.72745388251867 80.15537912601567 54.204479763602535 H 0.0 **** 0.06
25420 H 122.06914854730958 79.90855636647436 55.84001394073252 H 0.0 **** 0.06
25421 C 29.248411723870618 3.5818354732599857 68.661505524869 C 0.0 **** -0.24
25422 H 30.30759948552668 3.8044140172322614 68.78417949273742 H 0.0 **** 0.06
25423 H 28.754750277732455 4.419836449654582 68.17014455251248 H 0.0 **** 0.06
25424 H 28.796466959813984 3.4166756574687156 69.63944829070184 H 0.0 **** 0.06
25425 H 29.13379135607454 2.6842682555652857 68.05280592008242 H 0.0 **** 0.06
25426 C 38.54585241522774 9.797834832120827 112.73496024377216 C 0.0 **** -0.24
25427 H 39.06093883328538 10.32115700023627 111.9290068861833 H 0.0 **** 0.06
25428 H 38.50083224961324 8.733417217024112 112.50652604733698 H 0.0 **** 0.06
25429 H 37.53436897637732 10.191894913311216 112.83463878300445 H 0.0 **** 0.06
25430 H 39.08755217979057 9.947013789721666 113.66909883578334 H 0.0 **** 0.06
25431 C 15.534972513467153 116.4679115021483 6.103525622058758 C 0.0 **** -0.24
25432 H 16.460243188230038 116.9936474427571 5.864599144973344 H 0.0 **** 0.06
25433 H 14.742839522313261 116.80449296174254 5.434746033139838 H 0.0 **** 0.06
25434 H 15.25455085880543 116.6788178904506 7.135183539336424 H 0.0 **** 0.06
25435 H 15.684861879733887 115.39531903747667 5.9786717200926205 H 0.0 **** 0.06
25436 C 108.86454846095987 9.427928171803465 133.25581481268702 C 0.0 **** -0.24
25437 H 108.73983532287005 9.107707221883 132.22072779514173 H 0.0 **** 0.06
25438 H 109.91864133858277 9.624956876518816 133.45049346963805 H 0.0 **** 0.06
25439 H 108.51078564194316 8.643090434253665 133.92350518910675 H 0.0 **** 0.06
25440 H 108.28704355086873 10.33721518273812 133.42572995127406 H 0.0 **** 0.06
25441 C 65.96166911304425 10.74191224932082 62.27503298606601 C 0.0 **** -0.24
25442 H 66.21438001066193 9.839047098173978 62.8321009102186 H 0.0 **** 0.06
25443 H 66.17576813848926 10.588629825241014 61.21741538368292 H 0.0 **** 0.06
25444 H 66.55585916903053 11.576459458011357 62.64926031626544 H 0.0 **** 0.06
25445 H 64.90219646815223 10.962828848748813 62.40403864357211 H 0.0 **** 0.06
25446 C 118.67758318744917 112.37281293834756 94.61721882869392 C 0.0 **** -0.24
25447 H 118.97083933887446 112.77471601146469 95.58687476295472 H 0.0 **** 0.06
25448 H 117.6736801922571 112.7169539085689 94.37014266579291 H 0.0 **** 0.06
25449 H 118.68825757732564 111.28323360139665 94.65800926650604 H 0.0 **** 0.06
25450 H 119.37750057602169 112.7147485566572 93.85541010123723 H 0.0 **** 0.06
25451 C 141.37819325240855 19.053137476939753 80.2881081926172 C 0.0 **** -0.24
25452 H 141.71683705530245 18.99831971149726 81.32291894919511 H 0.0 **** 0.06
25453 H 142.22046338771372 19.310120378246296 79.64423336906312 H 0.0 **** 0.06
25454 H 140.60571889884267 19.816656166600268 80.19883075876923 H 0.0 **** 0.06
25455 H 140.97271123965828 18.087549713202492 79.98825082221916 H 0.0 **** 0.06
25456 C 135.23476481132408 40.07261084076856 40.26097569530875 C 0.0 **** -0.24
25457 H 135.90977810455962 40.615013851684864 40.92362036690998 H 0.0 **** 0.06
25458 H 134.31777921642254 39.82878270543151 40.79634295663622 H 0.0 **** 0.06
25459 H 135.71552602927352 39.15265995702774 39.92664058183021 H 0.0 **** 0.06
25460 H 134.9974179531862 40.693307016002734 39.39662180382314 H 0.0 **** 0.06
25461 C 109.63030764140845 134.70013629132922 9.786682745907541 C 0.0 **** -0.24
25462 H 108.68327530239284 134.41805446922558 10.245469667615595 H 0.0 **** 0.06
25463 H 110.42108037962046 134.0455598185573 10.153624197469497 H 0.0 **** 0.06
25464 H 109.86428928959023 135.733372365719 10.043915551701645 H 0.0 **** 0.06
25465 H 109.55270735279939 134.6049656930444 8.70365013047936 H 0.0 **** 0.06
25466 C 81.64115276918471 20.05833010865524 108.61684732284114 C 0.0 **** -0.24
25467 H 81.7889107208913 21.13792934019159 108.60321062986706 H 0.0 **** 0.06
25468 H 80.5733802581766 19.83816153246306 108.6087489059167 H 0.0 **** 0.06
25469 H 82.09145231784316 19.64159976136858 109.51822852208515 H 0.0 **** 0.06
25470 H 82.11021591771521 19.615866122246302 107.73843383855343 H 0.0 **** 0.06
25471 C 95.52698323093877 82.70939163147035 88.12860372577987 C 0.0 **** -0.24
25472 H 95.29659401340108 83.30408572677084 87.24380561115399 H 0.0 **** 0.06
25473 H 96.51702289452611 82.97778961400027 88.49799363968415 H 0.0 **** 0.06
25474 H 95.50942533296643 81.65041337157962 87.86822376387875 H 0.0 **** 0.06
25475 H 94.78411723905438 82.90544461196272 88.90167631987723 H 0.0 **** 0.06
25476 C 23.138016323142615 22.815249362951135 106.18447167390876 C 0.0 **** -0.24
25477 H 23.10891872916097 23.885348587044746 105.98007289426023 H 0.0 **** 0.06
25478 H 23.965235473743213 22.597712176671507 106.86030150244441 H 0.0 **** 0.06
25479 H 23.277877493736405 22.270509495286774 105.25145229024643 H 0.0 **** 0.06
25480 H 22.19998797296026 22.508927528418155 106.64771745551322 H 0.0 **** 0.06
25481 C 91.1530443911879 99.85923725999726 110.16695518499463 C 0.0 **** -0.24
25482 H 91.14112224428794 99.25384170438207 111.07374899608627 H 0.0 **** 0.06
25483 H 90.84532320770026 99.24716301327157 109.31830581768159 H 0.0 **** 0.06
25484 H 92.16079603213895 100.23650212183964 109.99588295069682 H 0.0 **** 0.06
25485 H 90.4652517641857 100.69647717064933 110.28021363400555 H 0.0 **** 0.06
25486 C 141.92234834297236 40.202719647255726 37.66471642096861 C 0.0 **** -0.24
25487 H 141.43518338345038 39.99933643615586 36.71068785672672 H 0.0 **** 0.06
25488 H 141.31432389816 39.80105887346013 38.47590865186585 H 0.0 **** 0.06
25489 H 142.03299707757384 41.27958048304606 37.792499434706805 H 0.0 **** 0.06
25490 H 142.90572695733596 39.73252769380251 37.67835213776929 H 0.0 **** 0.06
25491 C 17.536074268792248 137.4502945018947 8.856216932252721 C 0.0 **** -0.24
25492 H 16.778053486186963 138.18673093258784 8.588891688446495 H 0.0 **** 0.06
25493 H 18.51858410226626 137.92432488206845 8.860038852802262 H 0.0 **** 0.06
25494 H 17.526707128037373 136.63791482329884 8.129517260733707 H 0.0 **** 0.06
25495 H 17.321019544388236 137.05179760203538 9.848834018719998 H 0.0 **** 0.06
25496 C 50.74799087477925 48.615272446082585 78.04115701321828 C 0.0 **** -0.24
25497 H 50.50719319782206 49.58286212407906 78.48151208728774 H 0.0 **** 0.06
25498 H 50.66724471031128 48.67978852966475 76.95601479522733 H 0.0 **** 0.06
25499 H 50.052537988731615 47.86289223176992 78.41476141042753 H 0.0 **** 0.06
25500 H 51.765789391340775 48.33512420792432 78.31342537221443 H 0.0 **** 0.06
25501 C 79.3173376453673 143.260228777688 13.610793295047614 C 0.0 **** -0.24
25502 H 79.87255085863332 142.41446039846699 14.015634011682351 H 0.0 **** 0.06
25503 H 79.31345680861232 144.07370414779896 14.336807544619234 H 0.0 **** 0.06
25504 H 78.2925141644721 142.95561367415667 13.400022469617511 H 0.0 **** 0.06
25505 H 79.7921709704901 143.59812470673714 12.688913903780389 H 0.0 **** 0.06
25506 C 86.84975170843973 27.015217524965088 24.207172424489322 C 0.0 **** -0.24
25507 H 87.30938603450542 26.612442639304703 23.30536340081956 H 0.0 **** 0.06
25508 H 85.76467110870567 26.9704258813969 24.112622396414316 H 0.0 **** 0.06
25509 H 87.1599116365746 28.051467395585796 24.34221659313873 H 0.0 **** 0.06
25510 H 87.1640416325711 26.4272900361376 25.069685624043885 H 0.0 **** 0.06
25511 C 44.031930265531685 63.19415232233207 80.74550417516136 C 0.0 **** -0.24
25512 H 43.16590711359581 63.08871331069608 80.09196885340589 H 0.0 **** 0.06
25513 H 44.771603949421404 62.433849429268435 80.49372794720551 H 0.0 **** 0.06
25514 H 43.720312787845586 63.069276100914095 81.78232496760216 H 0.0 **** 0.06
25515 H 44.46846490736729 64.18380337846175 80.613879121244 H 0.0 **** 0.06
25516 C 72.4358759839063 48.5236406626253 59.209778321405025 C 0.0 **** -0.24
25517 H 72.45891358555099 49.61266560317219 59.25992694376751 H 0.0 **** 0.06
25518 H 71.46884336845707 48.16400145005559 59.560074502432144 H 0.0 **** 0.06
25519 H 73.22669015949032 48.11472647607124 59.838509595761565 H 0.0 **** 0.06
25520 H 72.5908700315446 48.20475404313825 58.178813197208456 H 0.0 **** 0.06
25521 C 76.0922627703053 142.4985926570702 138.60771182456847 C 0.0 **** -0.24
25522 H 75.48752612561823 141.70855842897248 139.05380199302073 H 0.0 **** 0.06
25523 H 75.85457304053817 142.58225511878584 137.5471128933988 H 0.0 **** 0.06
25524 H 77.14900942613153 142.25732280083798 138.72512683587087 H 0.0 **** 0.06
25525 H 75.87750045972003 143.44465760252507 139.10424092533472 H 0.0 **** 0.06
25526 C 114.44919266892798 45.24325450265384 113.37980743753224 C 0.0 **** -0.24
25527 H 113.70768396784167 44.46593963564128 113.19501473067845 H 0.0 **** 0.06
25528 H 114.00128044180666 46.22153604086458 113.2030001951174 H 0.0 **** 0.06
25529 H 115.29538179095776 45.10452404513876 112.70702610735248 H 0.0 **** 0.06
25530 H 114.79137640813006 45.1809326651466 114.412812361205 H 0.0 **** 0.06
25531 C 142.59495053903464 82.7559195858272 14.12480102254468 C 0.0 **** -0.24
25532 H 142.25914843824538 82.5445045777821 13.109497349462032 H 0.0 **** 0.06
25533 H 143.63993360689645 82.46010676260715 14.229820847825259 H 0.0 **** 0.06
25534 H 141.9861734313427 82.19396446217706 14.833419246852209 H 0.0 **** 0.06
25535 H 142.49694317428825 83.8224104469507 14.32636658430254 H 0.0 **** 0.06
25536 C 117.35369720797675 87.30385073853236 141.73816801155613 C 0.0 **** -0.24
25537 H 118.27364752814285 87.71257585012157 142.1575129013594 H 0.0 **** 0.06
25538 H 116.7661764946312 86.84330601611396 142.53233478324086 H 0.0 **** 0.06
25539 H 117.60009884613399 86.55502468750663 140.9859315859552 H 0.0 **** 0.06
25540 H 116.77832081976007 88.10592939826986 141.27699810075794 H 0.0 **** 0.06
25541 C 15.667674468865869 136.06597671658022 71.463781284128 C 0.0 **** -0.24
25542 H 16.41092398128177 135.4379691150289 71.95391643381919 H 0.0 **** 0.06
25543 H 15.433215630478543 136.91769987606915 72.1030962721191 H 0.0 **** 0.06
25544 H 14.76235010265708 135.48621037412786 71.28439993471335 H 0.0 **** 0.06
25545 H 16.064075753215008 136.42320699817228 70.51294350810042 H 0.0 **** 0.06
25546 C 107.06094250106558 72.7853456590735 43.068343314785864 C 0.0 **** -0.24
25547 H 107.3233655040293 73.69786775758922 43.60302682408326 H 0.0 **** 0.06
25548 H 106.97162517592885 71.96190110530091 43.776816583908044 H 0.0 **** 0.06
25549 H 107.8375380317437 72.55534477645057 42.339486103659794 H 0.0 **** 0.06
25550 H 106.10963200502609 72.92759561591731 42.55323721530732 H 0.0 **** 0.06
25551 C 31.28511484279136 18.786688021151235 68.86712818948097 C 0.0 **** -0.24
25552 H 31.390095581664397 19.165966923861276 67.85078550968598 H 0.0 **** 0.06
25553 H 30.228099462512432 18.662880628364917 69.10128002633257 H 0.0 **** 0.06
25554 H 31.73104105667619 19.494449605807688 69.56646807842218 H 0.0 **** 0.06
25555 H 31.79218586365559 17.82546401367364 68.95017202033468 H 0.0 **** 0.06
25556 C 96.37525846613312 133.19290360664104 112.68798778677586 C 0.0 **** -0.24
25557 H 96.97898407362679 133.8364712718243 113.3269798824715 H 0.0 **** 0.06
25558 H 96.61256580863966 133.3916724306464 111.64259451099156 H 0.0 **** 0.06
25559 H 95.31908996527858 133.39208395110555 112.86560288711291 H 0.0 **** 0.06
25560 H 96.59090706272336 132.14883739963415 112.91788644417971 H 0.0 **** 0.06
25561 C 45.64237515564125 39.91139455640888 126.08663452640224 C 0.0 **** -0.24
25562 H 44.76155745418848 40.540802550446756 126.21477766482487 H 0.0 **** 0.06
25563 H 46.517463485960064 40.426606474102584 126.48339013609593 H 0.0 **** 0.06
25564 H 45.791192445485905 39.70496852987861 125.027691884163 H 0.0 **** 0.06
25565 H 45.49904488071533 38.97354494901822 126.62425938465812 H 0.0 **** 0.06
25566 C 142.30823678991484 44.67125383385999 119.2095098368365 C 0.0 **** -0.24
25567 H 142.38302921227944 44.16896188771928 118.24509769176547 H 0.0 **** 0.06
25568 H 141.5897586303694 45.489216793351986 119.13842028208427 H 0.0 **** 0.06
25569 H 143.28398993915044 45.067031282695126 119.48987899689479 H 0.0 **** 0.06
25570 H 141.97387941088908 43.95894345006687 119.96475815443841 H 0.0 **** 0.06
25571 C 87.15384743461885 42.09746685047867 115.76928441741103 C 0.0 **** -0.24
25572 H 88.19329676451773 41.84677579999476 115.97980986294283 H 0.0 **** 0.06
25573 H 86.74601063083284 42.678668646341464 116.59602772085697 H 0.0 **** 0.06
25574 H 86.57643140176319 41.18137757880058 115.64871482408478 H 0.0 **** 0.06
25575 H 87.10124475781984 42.68470042522341 114.85173624713588 H 0.0 **** 0.06
25576 C 39.61300759338502 4.141966459685769 30.668804173053047 C 0.0 **** -0.24
25577 H 39.19321410067465 4.951654572076819 30.07123617208174 H 0.0 **** 0.06
25578 H 38.88119479225992 3.8214201482494303 31.410738140291244 H 0.0 **** 0.06
25579 H 40.51365744130197 4.4916815953427545 31.172988715659073 H 0.0 **** 0.06
25580 H 39.863076152123995 3.3033106777381853 30.018211260799774 H 0.0 **** 0.06
25581 C 46.38617116672387 0.5655154784944898 94.01008775720088 C 0.0 **** -0.24
25582 H 46.033428731459395 0.1261826138930644 93.07681217100557 H 0.0 **** 0.06
25583 H 45.730429437525814 0.2604768693860535 94.82518535785466 H 0.0 **** 0.06
25584 H 46.37899595170012 1.6521906213216937 93.92409615472023 H 0.0 **** 0.06
25585 H 47.40107032714839 0.2238438867868524 94.21201618319905 H 0.0 **** 0.06
25586 C 20.438815248011167 11.598410147215645 2.539530651848324 C 0.0 **** -0.24
25587 H 20.203033446386655 12.660149994355777 2.623836155704357 H 0.0 **** 0.06
25588 H 21.09508968048982 11.305997588960395 3.3588405040083593 H 0.0 **** 0.06
25589 H 20.93873265438947 11.413226304543997 1.5885992956649417 H 0.0 **** 0.06
25590 H 19.517720429945655 11.017519409976302 2.5851286383113568 H 0.0 **** 0.06
25591 C 90.83851424074268 69.8158076036847 50.48470778453269 C 0.0 **** -0.24
25592 H 89.88380886292488 70.21634313299586 50.14344858902594 H 0.0 **** 0.06
25593 H 91.31175472196331 69.26347126687108 49.672438774025466 H 0.0 **** 0.06
25594 H 90.67043531460138 69.1478268799948 51.33017107422775 H 0.0 **** 0.06
25595 H 91.48613673989477 70.63629841180611 50.79367028668328 H 0.0 **** 0.06
25596 C 115.39415346518032 26.189998211781983 100.20181417564697 C 0.0 **** -0.24
25597 H 115.75744847278955 25.191985209400485 100.44681147785212 H 0.0 **** 0.06
25598 H 115.78200145593863 26.90525510123976 100.92783515278074 H 0.0 **** 0.06
25599 H 114.30516421148744 26.196190797154628 100.23096715398054 H 0.0 **** 0.06
25600 H 115.73277461352066 26.464813815227586 99.20317411496632 H 0.0 **** 0.06
25601 C 75.80111699705762 104.16803847227085 25.498981181168716 C 0.0 **** -0.24
25602 H 75.9234667625067 103.2027211615255 25.9899668336204 H 0.0 **** 0.06
25603 H 76.77909895367591 104.55629234436243 25.21333953609893 H 0.0 **** 0.06
25604 H 75.31867869401637 104.86537980494484 26.184419930386838 H 0.0 **** 0.06
25605 H 75.18365731112033 104.04770848520565 24.60909798312923 H 0.0 **** 0.06
25606 C 100.34089806440142 125.20331017405084 46.80958013895538 C 0.0 **** -0.24
25607 H 99.30075316693035 125.52972766202285 46.824145051472755 H 0.0 **** 0.06
25608 H 100.45012728949207 124.37427005542017 46.1101036403234 H 0.0 **** 0.06
25609 H 100.63335511947912 124.87693934570368 47.807839058367676 H 0.0 **** 0.06
25610 H 100.97699975073998 126.03055983814318 46.49559684271321 H 0.0 **** 0.06
25611 C 51.744536048382784 0.17612439240940603 30.207636213845284 C 0.0 **** -0.24
25612 H 52.75101913106599 0.026480154577598114 30.598410193191945 H 0.0 **** 0.06
25613 H 51.73697842293055 1.042520420822143 29.545825269188555 H 0.0 **** 0.06
25614 H 51.05526105950197 0.3445566561032365 31.035115193965837 H 0.0 **** 0.06
25615 H 51.43581734254049 -0.7093144150517219 29.65145297137719 H 0.0 **** 0.06
25616 C 131.87162827133443 50.460316034414035 123.44639108017944 C 0.0 **** -0.24
25617 H 132.60798471650287 49.81056468487833 123.91856502356822 H 0.0 **** 0.06
25618 H 132.37626057026478 51.15116948094672 122.77115138567089 H 0.0 **** 0.06
25619 H 131.33890420501248 51.02307216771263 124.21256434660407 H 0.0 **** 0.06
25620 H 131.16143700719755 49.85382568162859 122.88268300122385 H 0.0 **** 0.06
25621 C 107.75680871456979 136.68709353369147 119.98594026776676 C 0.0 **** -0.24
25622 H 106.89268115908249 136.21351320647486 120.45278411151146 H 0.0 **** 0.06
25623 H 107.50559008680523 136.97523617016984 118.96418197591542 H 0.0 **** 0.06
25624 H 108.59142383939354 135.98700279308852 119.97281047534555 H 0.0 **** 0.06
25625 H 108.03567386967649 137.57408559830722 120.55582205436743 H 0.0 **** 0.06
25626 C 135.77471280281904 122.15163880594304 132.45459979827015 C 0.0 **** -0.24
25627 H 135.4397959906477 123.17004291302584 132.25933159463577 H 0.0 **** 0.06
25628 H 135.6671423998509 121.93156415990899 133.5176735226984 H 0.0 **** 0.06
25629 H 136.8210451583992 122.05157930033926 132.16642175733998 H 0.0 **** 0.06
25630 H 135.1699953676557 121.45307682701292 131.8760465211647 H 0.0 **** 0.06
25631 C 64.98548488496178 79.32587833503838 89.99852843940201 C 0.0 **** -0.24
25632 H 64.07644817088365 78.8956663584686 89.57983553962913 H 0.0 **** 0.06
25633 H 65.72905186171909 78.54083544358433 90.13494212111647 H 0.0 **** 0.06
25634 H 64.76034352539894 79.78522701886504 90.9615606796701 H 0.0 **** 0.06
25635 H 65.37609598184537 80.0817845192353 89.31777541719208 H 0.0 **** 0.06
25636 C 36.51329320240326 66.3269480523529 122.16186197369859 C 0.0 **** -0.24
25637 H 37.27201825693163 65.9889571296549 122.8675583076676 H 0.0 **** 0.06
25638 H 36.15104069434571 65.47799414890675 121.58316409781719 H 0.0 **** 0.06
25639 H 36.94714986304115 67.06719304149914 121.48894913390745 H 0.0 **** 0.06
25640 H 35.683590191610264 66.77601309712765 122.70789439115464 H 0.0 **** 0.06
25641 C 58.015059923112204 85.17007056116087 31.556282948912326 C 0.0 **** -0.24
25642 H 57.68889273864214 84.17643436476905 31.864884649649753 H 0.0 **** 0.06
25643 H 57.56023957152594 85.91913689243943 32.204508972781554 H 0.0 **** 0.06
25644 H 57.708528614609165 85.34796966734294 30.52465635064405 H 0.0 **** 0.06
25645 H 59.100484386788324 85.23544344947369 31.629692776128024 H 0.0 **** 0.06
25646 C 93.6146585740591 61.18280417155421 119.28347274598705 C 0.0 **** -0.24
25647 H 92.81360922362704 60.6942191592027 119.8391143258906 H 0.0 **** 0.06
25648 H 93.18453460050448 61.88796664560272 118.57228771627881 H 0.0 **** 0.06
25649 H 94.19403591180168 60.432061056946566 118.74612223651367 H 0.0 **** 0.06
25650 H 94.26498302252516 61.71519984393382 119.97720456419081 H 0.0 **** 0.06
25651 C 7.1047136233663934 60.834637751677874 116.12911383821228 C 0.0 **** -0.24
25652 H 6.592520064284457 60.74152147770866 115.17178213627585 H 0.0 **** 0.06
25653 H 8.055962868674982 60.3036913236126 116.08474393348098 H 0.0 **** 0.06
25654 H 6.485134405888942 60.40337213368805 116.91604236171321 H 0.0 **** 0.06
25655 H 7.28477680577285 61.88750886176807 116.34521000404379 H 0.0 **** 0.06
25656 C 73.30499866369897 15.589916327854837 74.82538225351976 C 0.0 **** -0.24
25657 H 74.16086342692374 14.918939577845777 74.75277647307843 H 0.0 **** 0.06
25658 H 72.38703653147425 15.026179362858898 74.65610113072944 H 0.0 **** 0.06
25659 H 73.39380595991295 16.37359000185114 74.07280418682973 H 0.0 **** 0.06
25660 H 73.27820576510557 16.038536852514028 75.81807537425954 H 0.0 **** 0.06
25661 C 51.248268161079324 133.95740697735886 85.77184430423885 C 0.0 **** -0.24
25662 H 51.204208884182876 134.89686411202013 86.32252929075477 H 0.0 **** 0.06
25663 H 51.78992903665261 134.10888277713872 84.83839936472985 H 0.0 **** 0.06
25664 H 50.235418543795504 133.61685736798165 85.55394853603913 H 0.0 **** 0.06
25665 H 51.76218095285098 133.2071868435173 86.37359120322189 H 0.0 **** 0.06
25666 C 41.88124975309778 69.98906336175081 129.6374877743136 C 0.0 **** -0.24
25667 H 42.76214095856223 70.51544663535235 130.0052679245949 H 0.0 **** 0.06
25668 H 41.018170642451494 70.25387125798595 130.2498048526854 H 0.0 **** 0.06
25669 H 42.050643633454584 68.91415671078278 129.6932575086814 H 0.0 **** 0.06
25670 H 41.69361958197324 70.27505596547545 128.60241770060932 H 0.0 **** 0.06
25671 C 115.60556088787187 45.06877305639452 59.814889978124825 C 0.0 **** -0.24
25672 H 116.04870300432985 46.04521054285044 59.61899255721465 H 0.0 **** 0.06
25673 H 114.72897009424752 45.18965948138995 60.45272383254951 H 0.0 **** 0.06
25674 H 116.33546968196883 44.43335444665881 60.31529999809288 H 0.0 **** 0.06
25675 H 115.30864413834759 44.609262106855795 58.87230098305932 H 0.0 **** 0.06
25676 C 93.06972377437313 40.473445062879264 43.9219677467224 C 0.0 **** -0.24
25677 H 93.28122298508231 40.842806930764446 42.91830156293791 H 0.0 **** 0.06
25678 H 92.63830252363715 39.47482633600313 43.85826366957504 H 0.0 **** 0.06
25679 H 92.36492057698734 41.14381002796353 44.41418738946879 H 0.0 **** 0.06
25680 H 93.9948074245047 40.43429591117347 44.496101380915704 H 0.0 **** 0.06
25681 C 112.71020046891496 33.049016329448925 122.80552290982101 C 0.0 **** -0.24
25682 H 111.81586491480769 33.50125347600675 122.37585860588413 H 0.0 **** 0.06
25683 H 113.55500918566625 33.20869513509521 122.13551260541337 H 0.0 **** 0.06
25684 H 112.54750003437303 31.979551272603487 122.93966075811286 H 0.0 **** 0.06
25685 H 112.91991142376529 33.50909262238378 123.77159074021873 H 0.0 **** 0.06
25686 C 61.22445784576067 33.288339812171074 41.04196848338799 C 0.0 **** -0.24
25687 H 60.45144225240439 32.905755613353996 40.37594138630422 H 0.0 **** 0.06
25688 H 62.13425476513096 33.47908392404552 40.47051484747348 H 0.0 **** 0.06
25689 H 61.431941690228356 32.55235091898186 41.819109220261424 H 0.0 **** 0.06
25690 H 60.88273951684924 34.215526125985605 41.501259228600844 H 0.0 **** 0.06
25691 C 14.019351561184834 83.24312132469069 85.60413423718046 C 0.0 **** -0.24
25692 H 14.381145785476576 82.30299210116584 85.19000044523676 H 0.0 **** 0.06
25693 H 14.72295512484996 83.60287150374977 86.3562783868415 H 0.0 **** 0.06
25694 H 13.04376047304649 83.08579266227385 86.06421099322785 H 0.0 **** 0.06
25695 H 13.930026272498964 83.98174291348192 84.80701312059108 H 0.0 **** 0.06
25696 C 100.0442471791547 30.760615032445457 62.97268141655127 C 0.0 **** -0.24
25697 H 98.9890914824602 30.889590544278377 63.214349954329634 H 0.0 **** 0.06
25698 H 100.24319871190022 29.708318007547604 62.76471929195466 H 0.0 **** 0.06
25699 H 100.65252584216603 31.084861839281416 63.817274211407266 H 0.0 **** 0.06
25700 H 100.29198927962523 31.358032883281425 62.0958726490141 H 0.0 **** 0.06
25701 C 81.97959058407012 64.44819876772462 140.0652421992976 C 0.0 **** -0.24
25702 H 82.46719654143966 64.21001019829626 139.1191340669035 H 0.0 **** 0.06
25703 H 81.14736198609812 65.12871157146444 139.88265024403017 H 0.0 **** 0.06
25704 H 82.69702055565509 64.92356183317295 140.73373383310917 H 0.0 **** 0.06
25705 H 81.60733032655911 63.532197545850124 140.52303027195418 H 0.0 **** 0.06
25706 C 8.982786775355464 135.93825053263294 12.10995198098999 C 0.0 **** -0.24
25707 H 8.257617519188159 135.9518258553624 12.923646738990413 H 0.0 **** 0.06
25708 H 8.567364909454056 136.45295960312964 11.243166440178953 H 0.0 **** 0.06
25709 H 9.210550732006453 134.90605029731987 11.844947969382446 H 0.0 **** 0.06
25710 H 9.895328816892459 136.4413938988317 12.428614251449005 H 0.0 **** 0.06
25711 C 40.882113799199125 71.11320571675793 125.88130084581206 C 0.0 **** -0.24
25712 H 41.911896386803406 71.40762698009462 126.08721320825283 H 0.0 **** 0.06
25713 H 40.412599832285274 71.85942178983339 125.23956246641444 H 0.0 **** 0.06
25714 H 40.33108598967572 71.04221194205945 126.81962071546376 H 0.0 **** 0.06
25715 H 40.87472146000152 70.14568482181187 125.38127236301247 H 0.0 **** 0.06
25716 C 90.0464872699389 74.94991356277343 135.8671890190123 C 0.0 **** -0.24
25717 H 90.42465895274164 75.27303547687877 134.89730484905385 H 0.0 **** 0.06
25718 H 90.49266937826492 73.98998346307975 136.12907004361222 H 0.0 **** 0.06
25719 H 88.96300647800977 74.84599093328711 135.81708593133575 H 0.0 **** 0.06
25720 H 90.3064178391373 75.68974697555666 136.6240506324258 H 0.0 **** 0.06
25721 C 102.50980673697583 37.24569122375357 84.58200336334718 C 0.0 **** -0.24
25722 H 102.37084741897787 38.21140125851136 84.09569857615804 H 0.0 **** 0.06
25723 H 102.81025053326503 36.50470928594362 83.84073403304416 H 0.0 **** 0.06
25724 H 101.57328898858522 36.9355769814654 85.04604709044341 H 0.0 **** 0.06
25725 H 103.28255759402718 37.33185102883557 85.34597227783117 H 0.0 **** 0.06
25726 C 68.99083595904786 109.5876051106576 67.12906040987389 C 0.0 **** -0.24
25727 H 69.86249102589109 109.38111582980041 67.75015985550783 H 0.0 **** 0.06
25728 H 69.16347204492648 109.20497417599977 66.12238652443637 H 0.0 **** 0.06
25729 H 68.82258043120805 110.66311551813676 67.08546813883521 H 0.0 **** 0.06
25730 H 68.11590737567028 109.09960092897909 67.55863903216084 H 0.0 **** 0.06
25731 C 33.787030789257074 27.37465144276907 42.808309223977574 C 0.0 **** -0.24
25732 H 33.010695345199906 27.697538976660596 43.50235449569038 H 0.0 **** 0.06
25733 H 33.86925634037539 26.28787027033861 42.836283529465675 H 0.0 **** 0.06
25734 H 34.73922030497954 27.81935694855433 43.09571310148391 H 0.0 **** 0.06
25735 H 33.52762717622147 27.693436799792977 41.799177160567524 H 0.0 **** 0.06
25736 C 3.45933031463386 59.244579658028016 62.92261206260237 C 0.0 **** -0.24
25737 H 4.179291809742779 58.781138872882934 62.24814784767253 H 0.0 **** 0.06
25738 H 3.9552353665857822 59.50646972886662 63.858648802775775 H 0.0 **** 0.06
25739 H 2.6478413687780744 58.5456302218021 63.124387328009306 H 0.0 **** 0.06
25740 H 3.0559958835817156 60.14578575968332 62.46045320428375 H 0.0 **** 0.06
25741 C 39.60304438198182 72.15043968013123 33.87263774859242 C 0.0 **** -0.24
25742 H 39.22532877468507 71.53973809472231 33.05318467032395 H 0.0 **** 0.06
25743 H 39.889904439002976 71.50593884670239 34.704188063006455 H 0.0 **** 0.06
25744 H 38.82413446315974 72.84085361986824 34.20034637360131 H 0.0 **** 0.06
25745 H 40.47048420280862 72.71648020249738 33.53425461050316 H 0.0 **** 0.06
25746 C 70.98358871255809 70.94612663725194 1.3970044562267958 C 0.0 **** -0.24
25747 H 70.45780734415786 71.80330783796035 0.9746452449751644 H 0.0 **** 0.06
25748 H 70.45946904467354 70.60261950060854 2.2894244029640163 H 0.0 **** 0.06
25749 H 72.00002555356053 71.23786930587215 1.6623783156314573 H 0.0 **** 0.06
25750 H 71.015958384913 70.14251170158067 0.6623153581458325 H 0.0 **** 0.06
25751 C 117.01866353762955 69.57167177932762 12.313921643203969 C 0.0 **** -0.24
25752 H 117.98023693775951 70.01382343866867 12.576035042880562 H 0.0 **** 0.06
25753 H 117.17509544190017 68.75498397321347 11.608852140496253 H 0.0 **** 0.06
25754 H 116.38279889200606 70.3297702719868 11.85757233741407 H 0.0 **** 0.06
25755 H 116.53844656570283 69.1880114419481 13.214740355914387 H 0.0 **** 0.06
25756 C 63.808003004472596 78.79555678707382 25.397795765691015 C 0.0 **** -0.24
25757 H 64.62939065756058 79.356807385211 25.84293728701971 H 0.0 **** 0.06
25758 H 63.30763606396016 79.41386936019185 24.65225676549241 H 0.0 **** 0.06
25759 H 63.096634197583796 78.51523003039708 26.175150422029702 H 0.0 **** 0.06
25760 H 64.19847587266986 77.8960313595883 24.922217352299953 H 0.0 **** 0.06
25761 C 141.43514488672366 119.59500794005106 114.79546286240364 C 0.0 **** -0.24
25762 H 142.1308898095973 118.89416598068988 114.3346045044195 H 0.0 **** 0.06
25763 H 140.7475077365045 119.04988284115888 115.4430126489917 H 0.0 **** 0.06
25764 H 140.8712326452654 120.11089854003524 114.01848103650016 H 0.0 **** 0.06
25765 H 141.99008885910777 120.3237440808831 115.38643386687627 H 0.0 **** 0.06
25766 C 8.095924056200147 13.130662035434796 50.735490821341244 C 0.0 **** -0.24
25767 H 7.090755772488251 13.23275129108697 51.14509602369712 H 0.0 **** 0.06
25768 H 8.653818908915525 14.051534198509842 50.90669160721703 H 0.0 **** 0.06
25769 H 8.0345852325907 12.9363928169779 49.66518858835829 H 0.0 **** 0.06
25770 H 8.605506388954609 12.300499453616624 51.22636443492489 H 0.0 **** 0.06
25771 C 87.21350939754107 44.84912591908575 143.2153272133853 C 0.0 **** -0.24
25772 H 87.51972935267803 43.8042233476034 143.16316534219658 H 0.0 **** 0.06
25773 H 87.96534751406729 45.47277239403563 142.73116769500302 H 0.0 **** 0.06
25774 H 87.11112138329604 45.14584181008989 144.25863408262296 H 0.0 **** 0.06
25775 H 86.25684081813554 44.971614910239424 142.70744969362852 H 0.0 **** 0.06
25776 C 33.538067759708355 13.55614671571331 83.82882819681598 C 0.0 **** -0.24
25777 H 32.52338368300687 13.336006736404158 83.49729312439881 H 0.0 **** 0.06
25778 H 34.0863697635252 14.042254362242922 83.0212582563078 H 0.0 **** 0.06
25779 H 34.039647821705245 12.627384032979911 84.10068701394096 H 0.0 **** 0.06
25780 H 33.50319431923194 14.216550515330454 84.6942919370459 H 0.0 **** 0.06
25781 C 99.1573511998522 93.43855758220988 44.27390043457501 C 0.0 **** -0.24
25782 H 99.80291123824759 92.65783652365133 43.870642705107 H 0.0 **** 0.06
25783 H 98.51862724816658 93.01576880616258 45.05022209293105 H 0.0 **** 0.06
25784 H 98.5381197120081 93.84624029029735 43.475328560278456 H 0.0 **** 0.06
25785 H 99.77056397758741 94.23213701562867 44.69993756172505 H 0.0 **** 0.06
25786 C 116.69065887699463 40.986118730791155 70.12257924574061 C 0.0 **** -0.24
25787 H 116.31440289266828 41.56370876431296 69.27728394007909 H 0.0 **** 0.06
25788 H 115.85292533678364 40.528810751751095 70.65049769672214 H 0.0 **** 0.06
25789 H 117.23087245685628 41.64690065459686 70.80080815198028 H 0.0 **** 0.06
25790 H 117.36244739458158 40.20812825021487 69.76094979021002 H 0.0 **** 0.06
25791 C 7.2569878601201765 92.87479410832447 39.68748386746495 C 0.0 **** -0.24
25792 H 7.322957396182261 92.40442907845589 40.6686686945348 H 0.0 **** 0.06
25793 H 7.195673282251988 92.10390728645302 38.918966495813834 H 0.0 **** 0.06
25794 H 8.14269655041079 93.48788143756221 39.51804661907482 H 0.0 **** 0.06
25795 H 6.367140990458779 93.50301110893118 39.64556905887815 H 0.0 **** 0.06
25796 C 141.40413219785333 7.277372964317792 109.94803100515901 C 0.0 **** -0.24
25797 H 141.7657191593202 8.3029091257686 109.87100918771375 H 0.0 **** 0.06
25798 H 142.109267394423 6.686527344221414 110.53242957852848 H 0.0 **** 0.06
25799 H 141.31179192477217 6.849259260510493 108.94970548574696 H 0.0 **** 0.06
25800 H 140.43031740138906 7.270570808464861 110.43818750228604 H 0.0 **** 0.06
25801 C 10.170329046147202 140.3766397794883 93.50350384481834 C 0.0 **** -0.24
25802 H 9.734799187174133 141.22039701829905 94.03883305581388 H 0.0 **** 0.06
25803 H 9.564496600192285 140.15267901647917 92.62478684013234 H 0.0 **** 0.06
25804 H 10.197412585572636 139.50542943568584 94.15749840646754 H 0.0 **** 0.06
25805 H 11.18396778731747 140.62865084211685 93.19178630469793 H 0.0 **** 0.06
25806 C 82.53742603241989 104.32316507863857 139.4896574581614 C 0.0 **** -0.24
25807 H 82.6994832311952 103.85735455164644 138.51722034066646 H 0.0 **** 0.06
25808 H 81.5469900235151 104.0563324115887 139.8587871783878 H 0.0 **** 0.06
25809 H 82.60971394553134 105.40554389999396 139.38995600231664 H 0.0 **** 0.06
25810 H 83.29417932735761 103.97053659180874 140.19061859042446 H 0.0 **** 0.06
25811 C 7.359431773145843 68.24971173605144 78.85952289428985 C 0.0 **** -0.24
25812 H 7.214967251611057 69.07189409728714 78.15903089656553 H 0.0 **** 0.06
25813 H 7.702130384607557 68.64476806948143 79.81669274374966 H 0.0 **** 0.06
25814 H 8.105061595652472 67.56081827221816 78.4621567226583 H 0.0 **** 0.06
25815 H 6.416688141042869 67.7220035905995 79.00079360714875 H 0.0 **** 0.06
25816 C 118.44994623418172 41.702192785639085 93.6315904899236 C 0.0 **** -0.24
25817 H 117.49064014686594 41.68065220471192 93.11489549931706 H 0.0 **** 0.06
25818 H 119.19382189541552 41.17061980933889 93.03744732204837 H 0.0 **** 0.06
25819 H 118.34873918437957 41.22001421373204 94.60376014764346 H 0.0 **** 0.06
25820 H 118.76524199964514 42.73650389098299 93.76977161350524 H 0.0 **** 0.06
25821 C 103.04638333538313 100.08594543936647 134.3741063083882 C 0.0 **** -0.24
25822 H 103.63701156842696 100.39470852107718 135.23615880769154 H 0.0 **** 0.06
25823 H 102.89771352020918 99.00576244288234 134.40468329613816 H 0.0 **** 0.06
25824 H 103.57363844456628 100.354054527447 133.45866299771777 H 0.0 **** 0.06
25825 H 102.07909924731283 100.58746849090511 134.39796007174667 H 0.0 **** 0.06
25826 C 111.10013231004564 77.93205032427112 113.74649598539101 C 0.0 **** -0.24
25827 H 111.68042010924006 77.39164945414882 114.49462423766407 H 0.0 **** 0.06
25828 H 110.04344157227303 77.68855766998688 113.86146533826509 H 0.0 **** 0.06
25829 H 111.4332444335152 77.64308431816521 112.74975286361872 H 0.0 **** 0.06
25830 H 111.2429991081761 79.00483132872215 113.8814883986803 H 0.0 **** 0.06
25831 C 98.73406751048225 49.33518022318903 126.33500837109932 C 0.0 **** -0.24
25832 H 98.99339240792652 48.27776391399179 126.3875654326253 H 0.0 **** 0.06
25833 H 99.10462575980469 49.84415259132744 127.2252300524173 H 0.0 **** 0.06
25834 H 97.65144480903378 49.441586506222265 126.27902072129217 H 0.0 **** 0.06
25835 H 99.18861253491471 49.77611173739808 125.44749829040833 H 0.0 **** 0.06
25836 C 90.67436218224182 11.961402767726206 125.3431380529196 C 0.0 **** -0.24
25837 H 90.64416959785422 11.532167941873595 126.34555106701306 H 0.0 **** 0.06
25838 H 89.6644636382909 11.993955047348756 124.9325796063421 H 0.0 **** 0.06
25839 H 91.307861996642 11.3464200858107 124.70375460555185 H 0.0 **** 0.06
25840 H 91.08011472773981 12.971698993740262 125.39356913558487 H 0.0 **** 0.06
25841 C 19.399873497661446 51.14765858869208 23.28546367323728 C 0.0 **** -0.24
25842 H 18.543358367614303 50.607319515664216 23.68859816018083 H 0.0 **** 0.06
25843 H 19.65973029621992 50.74040287168566 22.308464127040573 H 0.0 **** 0.06
25844 H 20.247968691908483 51.03843381981923 23.961631848129244 H 0.0 **** 0.06
25845 H 19.149520476198006 52.20350646599931 23.1848580090193 H 0.0 **** 0.06
25846 C 32.05897751786705 40.509770676765186 141.33827734262908 C 0.0 **** -0.24
25847 H 32.33212029884629 39.667755197003544 140.70254718441083 H 0.0 **** 0.06
25848 H 32.95791854812799 40.92830112853389 141.7918996770199 H 0.0 **** 0.06
25849 H 31.381401103910008 40.17004663809257 142.12052449302035 H 0.0 **** 0.06
25850 H 31.566577485247308 41.27399553058119 140.73741175665404 H 0.0 **** 0.06
25851 C 124.98033189937306 92.52913415771589 41.52343051236102 C 0.0 **** -0.24
25852 H 125.40921113847527 91.81784480546014 40.817937826592356 H 0.0 **** 0.06
25853 H 124.63928472943256 93.41333871092577 40.98557086268852 H 0.0 **** 0.06
25854 H 125.73787022337876 92.81592653235428 42.253561847218265 H 0.0 **** 0.06
25855 H 124.13689473544167 92.06794440669742 42.03690850091871 H 0.0 **** 0.06
25856 C 124.71350633136908 136.78582605759854 41.150468804050405 C 0.0 **** -0.24
25857 H 124.24462247840563 136.43028899618386 42.0681213730597 H 0.0 **** 0.06
25858 H 125.62878764374751 137.32494275439052 41.39506276902803 H 0.0 **** 0.06
25859 H 124.02741384425556 137.45328365242966 40.62765868745461 H 0.0 **** 0.06
25860 H 124.95101368456068 135.93565361255642 40.51171538662956 H 0.0 **** 0.06
25861 C 79.21959167003753 23.84162959726217 86.80584567542141 C 0.0 **** -0.24
25862 H 79.85549581139003 24.2377912140239 86.01317180778145 H 0.0 **** 0.06
25863 H 78.81467468822417 22.877100282490517 86.49894446825789 H 0.0 **** 0.06
25864 H 78.40112676272206 24.536806352064104 86.99529860573219 H 0.0 **** 0.06
25865 H 79.80840383128688 23.717438327402704 87.71413286584269 H 0.0 **** 0.06
25866 C 53.99982731167307 94.780957199194 131.68137223887152 C 0.0 **** -0.24
25867 H 54.37860266944267 95.62544637459312 132.25598524001057 H 0.0 **** 0.06
25868 H 53.27777639234364 95.13788614944002 130.94582539176207 H 0.0 **** 0.06
25869 H 53.5146098847769 94.07344704893467 132.35324670826031 H 0.0 **** 0.06
25870 H 54.82753664796107 94.28937002164851 131.17043859805503 H 0.0 **** 0.06
25871 C 84.31970988201266 114.61548982652748 82.96883394327553 C 0.0 **** -0.24
25872 H 83.49236076003751 115.08418874470651 82.43383791383995 H 0.0 **** 0.06
25873 H 85.16950232011175 114.50420753432515 82.29516787530525 H 0.0 **** 0.06
25874 H 84.00943649508508 113.63465772852125 83.32870156387949 H 0.0 **** 0.06
25875 H 84.60499854577193 115.24032430187502 83.81550045210672 H 0.0 **** 0.06
25876 C 61.375736226379274 84.0118522439243 60.133236453880514 C 0.0 **** -0.24
25877 H 60.384978628921004 84.46692453693584 60.14027318100594 H 0.0 **** 0.06
25878 H 62.02422258721238 84.56450052384315 59.45303116269349 H 0.0 **** 0.06
25879 H 61.297610075506455 82.97643347367159 59.80197649009851 H 0.0 **** 0.06
25880 H 61.79439828422569 84.04073526028594 61.14002829965996 H 0.0 **** 0.06
25881 C 97.21993811802017 126.19738280843131 104.79568584985309 C 0.0 **** -0.24
25882 H 96.70874185218716 127.00017700642115 104.26496490429803 H 0.0 **** 0.06
25883 H 96.99400392208585 126.2644058521002 105.86053682808308 H 0.0 **** 0.06
25884 H 98.29544748560926 126.29036885143631 104.64629015290494 H 0.0 **** 0.06
25885 H 96.88185451153893 125.23494699365989 104.41183344828443 H 0.0 **** 0.06
25886 C 43.17230122475735 145.14463576772394 59.47946386013456 C 0.0 **** -0.24
25887 H 43.75205711319995 144.52449488557585 58.796367045588426 H 0.0 **** 0.06
25888 H 42.82259198921167 146.03362884180197 58.95499113190726 H 0.0 **** 0.06
25889 H 43.79862092575786 145.44100535759844 60.32158596900058 H 0.0 **** 0.06
25890 H 42.31664505476067 144.57818689648198 59.845906292225465 H 0.0 **** 0.06
25891 C 139.97858500633834 133.22340133958852 102.37034265333779 C 0.0 **** -0.24
25892 H 140.51009806795722 132.4245680886259 102.88686193629364 H 0.0 **** 0.06
25893 H 139.11679782854466 132.80754624182072 101.84868157699339 H 0.0 **** 0.06
25894 H 140.64589127627679 133.69682356103476 101.65077639549106 H 0.0 **** 0.06
25895 H 139.641520803636 133.9636675329595 103.09605030069082 H 0.0 **** 0.06
25896 C 136.4053820275076 94.46161392464852 143.0573910294716 C 0.0 **** -0.24
25897 H 136.04598083611617 93.77194689717615 143.82135247242388 H 0.0 **** 0.06
25898 H 136.42880560476894 95.47273764649799 143.46385511509214 H 0.0 **** 0.06
25899 H 135.736086572607 94.43151768433484 142.1970174184252 H 0.0 **** 0.06
25900 H 137.40843121262614 94.17020157086209 142.7475668512135 H 0.0 **** 0.06
25901 C 143.96032119810286 98.19447825517808 117.91954883064712 C 0.0 **** -0.24
25902 H 143.8230297938896 97.31422942279028 117.29147402414311 H 0.0 **** 0.06
25903 H 144.6401321056884 97.95337720610362 118.73738766287694 H 0.0 **** 0.06
25904 H 142.99800542679293 98.5046442839108 118.3255429721463 H 0.0 **** 0.06
25905 H 144.38148641527073 99.00290377342147 117.3230709373026 H 0.0 **** 0.06
25906 C 90.92769560672187 144.90092371887883 115.92599689314926 C 0.0 **** -0.24
25907 H 91.30942112695641 144.35822689263682 116.79049597132035 H 0.0 **** 0.06
25908 H 91.02836938332452 145.9733009522105 116.0963899764701 H 0.0 **** 0.06
25909 H 89.87587012911325 144.65403737133192 115.77772941996574 H 0.0 **** 0.06
25910 H 91.49507507731803 144.61896029143202 115.03972040907661 H 0.0 **** 0.06
25911 C 56.617580126699096 24.0343678050441 1.5584834868936746 C 0.0 **** -0.24
25912 H 56.848080959142095 23.369788978140605 0.7261931413333045 H 0.0 **** 0.06
25913 H 55.94220496811843 24.82073898285796 1.2186839223028976 H 0.0 **** 0.06
25914 H 57.53787541841521 24.482757752127156 1.9323911155757791 H 0.0 **** 0.06
25915 H 56.13966381403989 23.46496302824903 2.3555845407322984 H 0.0 **** 0.06
25916 C 22.001937590162726 60.78897429676776 38.392276846441746 C 0.0 **** -0.24
25917 H 21.62281288863292 61.733706860659154 38.78045424007419 H 0.0 **** 0.06
25918 H 23.09264660423318 60.79835662761765 38.41434056006733 H 0.0 **** 0.06
25919 H 21.660008891116206 60.65398841152188 37.366559324900464 H 0.0 **** 0.06
25920 H 21.63390548734813 59.9691290057408 39.009113912131625 H 0.0 **** 0.06
25921 C 71.58623856840694 53.78468000228226 30.408893549548786 C 0.0 **** -0.24
25922 H 71.19563780499192 53.62226975736877 29.403733908321627 H 0.0 **** 0.06
25923 H 72.17253288240579 52.91820888576224 30.715213135320276 H 0.0 **** 0.06
25924 H 70.75692954946746 53.92757857215912 31.10167089239455 H 0.0 **** 0.06
25925 H 72.2200509639524 54.67232383807955 30.412092238378293 H 0.0 **** 0.06
25926 C 74.48749885513504 77.505305768874 94.9605421974195 C 0.0 **** -0.24
25927 H 74.48620453444681 77.31374455785284 93.88830693936701 H 0.0 **** 0.06
25928 H 73.90368030603044 78.4018451580816 95.17007248262834 H 0.0 **** 0.06
25929 H 75.51235772206415 77.65125562259038 95.30271008939762 H 0.0 **** 0.06
25930 H 74.04748700667854 76.6556035049443 95.481732656671 H 0.0 **** 0.06
25931 C 143.6959819912959 24.08428157197403 62.15675418515269 C 0.0 **** -0.24
25932 H 142.76919389778425 23.755346867396327 62.625714354728245 H 0.0 **** 0.06
25933 H 143.98624410679875 23.36952743893829 61.38618078484194 H 0.0 **** 0.06
25934 H 144.48163388852657 24.148294525902827 62.909354556737014 H 0.0 **** 0.06
25935 H 143.54547478070776 25.064850536011647 61.70425223076569 H 0.0 **** 0.06
25936 C 112.18988036949915 106.76850197296805 23.26911988749626 C 0.0 **** -0.24
25937 H 111.82651172231144 107.64099475529268 22.726962688253906 H 0.0 **** 0.06
25938 H 112.81859661535336 107.09102844208952 24.098913503382903 H 0.0 **** 0.06
25939 H 112.77165305111347 106.13850614414712 22.595618784014604 H 0.0 **** 0.06
25940 H 111.34241579780794 106.20126915314243 23.655000253736375 H 0.0 **** 0.06
25941 C 25.441757732973144 45.286209084019276 108.94111796371139 C 0.0 **** -0.24
25942 H 25.164195998206367 45.76337361898831 108.00092148833407 H 0.0 **** 0.06
25943 H 24.62705310063518 44.64430017560825 109.27595852774577 H 0.0 **** 0.06
25944 H 25.63620707552002 46.05039994753102 109.69279317113124 H 0.0 **** 0.06
25945 H 26.339525972531135 44.686131219132335 108.79204197843914 H 0.0 **** 0.06
25946 C 84.78971570768493 65.65455749446116 91.23641571193377 C 0.0 **** -0.24
25947 H 84.99922648655598 65.92299964984622 90.20095931970809 H 0.0 **** 0.06
25948 H 84.62421229607958 66.55993174531727 91.81909222397883 H 0.0 **** 0.06
25949 H 85.63730745521033 65.10683912148619 91.6478895179805 H 0.0 **** 0.06
25950 H 83.89823003255873 65.02770716702659 91.2756190727406 H 0.0 **** 0.06
25951 C 90.44295135093188 91.05937104568712 95.46971650035958 C 0.0 **** -0.24
25952 H 89.59927583131122 91.71199764976053 95.24801179691434 H 0.0 **** 0.06
25953 H 91.28950132475404 91.65961047258548 95.80358875415952 H 0.0 **** 0.06
25954 H 90.7199679432104 90.5059010408963 94.57242353695749 H 0.0 **** 0.06
25955 H 90.16197794101623 90.35835802823308 96.2563298955 H 0.0 **** 0.06
25956 C 100.0171002843783 24.59008121975119 89.72748022596772 C 0.0 **** -0.24
25957 H 99.27777332792638 25.144103220790832 89.14999505422871 H 0.0 **** 0.06
25958 H 100.19118953424405 25.096553573607615 90.67716049374057 H 0.0 **** 0.06
25959 H 100.95018286880591 24.536090245646406 89.16690306911691 H 0.0 **** 0.06
25960 H 99.64876233148198 23.58079443785818 89.9157627641522 H 0.0 **** 0.06
25961 C 46.98820350147085 2.186932753639155 21.664919761665885 C 0.0 **** -0.24
25962 H 47.501763093609725 2.4085790557248288 20.729367326108843 H 0.0 **** 0.06
25963 H 47.451583452058856 1.3209477153710623 22.13801367128991 H 0.0 **** 0.06
25964 H 45.939163057624754 1.9725226083990606 21.461232927573974 H 0.0 **** 0.06
25965 H 47.06054371548716 3.047055003329035 22.33082705383572 H 0.0 **** 0.06
25966 C 133.17847349897454 64.80486623090708 55.99608275675486 C 0.0 **** -0.24
25967 H 133.56654888172235 64.57951186599925 55.00259907958042 H 0.0 **** 0.06
25968 H 132.14118870590394 64.47624150896483 56.0636546803276 H 0.0 **** 0.06
25969 H 133.231054498218 65.87923575229578 56.170986289139364 H 0.0 **** 0.06
25970 H 133.77560518046502 64.28539608705401 56.7448773732105 H 0.0 **** 0.06
25971 C 111.58635054989078 49.53986777389787 114.87062795604419 C 0.0 **** -0.24
25972 H 111.1052831264554 50.36383770977449 115.39773475670484 H 0.0 **** 0.06
25973 H 110.82456123196307 48.854808423091754 114.4974475011432 H 0.0 **** 0.06
25974 H 112.25071771672147 49.00990024182346 115.55296479898692 H 0.0 **** 0.06
25975 H 112.1637856779242 49.93306169959271 114.03379755772664 H 0.0 **** 0.06
25976 C 120.41370347762238 15.211936313928163 140.45680572597323 C 0.0 **** -0.24
25977 H 119.79664308608041 15.534993244056636 139.6190578288042 H 0.0 **** 0.06
25978 H 121.02904934862745 14.365914480697882 140.15045883160326 H 0.0 **** 0.06
25979 H 119.77290407745416 14.915128006461657 141.2868791191119 H 0.0 **** 0.06
25980 H 121.05757364412419 16.033748781748216 140.77077927782327 H 0.0 **** 0.06
25981 C 43.183549152232615 100.63572532187061 52.61176963975677 C 0.0 **** -0.24
25982 H 42.868964796894105 99.62144712972247 52.85910415712837 H 0.0 **** 0.06
25983 H 42.30710192999919 101.27574464164108 52.517200229563656 H 0.0 **** 0.06
25984 H 43.7308163463948 100.62590161611683 51.66946874069481 H 0.0 **** 0.06
25985 H 43.82952306477017 101.01781587382872 53.4027718194682 H 0.0 **** 0.06
25986 C 124.42177139377804 113.49989392015432 26.812439258878925 C 0.0 **** -0.24
25987 H 123.99483802464997 112.94001450218254 25.98125831202941 H 0.0 **** 0.06
25988 H 123.81001842928985 114.38037427555439 27.00931118904633 H 0.0 **** 0.06
25989 H 125.435661819242 113.81119829449777 26.557241744361733 H 0.0 **** 0.06
25990 H 124.44831581410095 112.86835360491627 27.69975265711932 H 0.0 **** 0.06
25991 C 43.310933575190575 100.5964314240435 42.7689382812997 C 0.0 **** -0.24
25992 H 44.18247259799202 101.2237227017733 42.5813555315312 H 0.0 **** 0.06
25993 H 42.50460996033843 101.20754190949738 43.17482879660788 H 0.0 **** 0.06
25994 H 43.573120346774786 99.81729300291396 43.48515287397379 H 0.0 **** 0.06
25995 H 42.9862464493761 100.13832037260123 41.83555660115964 H 0.0 **** 0.06
25996 C 85.29062197138893 91.5702641943906 136.97319163587417 C 0.0 **** -0.24
25997 H 85.15459813751576 92.13251776262533 136.04973600215266 H 0.0 **** 0.06
25998 H 84.38841525049885 90.99541765482792 137.18563327184614 H 0.0 **** 0.06
25999 H 85.48181792009926 92.26172473685291 137.79407916928784 H 0.0 **** 0.06
26000 H 86.13665209983265 90.89173130797653 136.86425570259615 H 0.0 **** 0.06
26001 C 0.7450712930447025 20.586969696048868 94.11852116967754 C 0.0 **** -0.24
26002 H 1.4122623259239049 20.044238340563993 93.4486445299801 H 0.0 **** 0.06
26003 H -0.28649955558904594 20.45302302381674 93.79065712164189 H 0.0 **** 0.06
26004 H 0.9970742409117861 21.647158171562808 94.10215679722381 H 0.0 **** 0.06
26005 H 0.8578738102190187 20.202618114954305 95.13229252169484 H 0.0 **** 0.06
26006 C 65.53426096717064 124.83254475460146 52.579033024186174 C 0.0 **** -0.24
26007 H 65.83688306698895 123.78547173832948 52.61530850070781 H 0.0 **** 0.06
26008 H 66.3280175749519 125.45482836899541 52.992363942995325 H 0.0 **** 0.06
26009 H 64.62437985153969 124.96829811245206 53.16307775526994 H 0.0 **** 0.06
26010 H 65.34767285138904 125.12098637419842 51.54458283036661 H 0.0 **** 0.06
26011 C 83.42110675048202 38.44038385777909 54.16720202267305 C 0.0 **** -0.24
26012 H 82.56173653824229 38.87511290689568 54.6772170887308 H 0.0 **** 0.06
26013 H 84.32585579222346 38.96932341833857 54.46753188889019 H 0.0 **** 0.06
26014 H 83.28709001743239 38.529173511733724 53.089932449789245 H 0.0 **** 0.06
26015 H 83.50888652186453 37.38837222808428 54.43760009028975 H 0.0 **** 0.06
26016 C 64.78980227669072 74.54978782037315 34.24475769104123 C 0.0 **** -0.24
26017 H 64.71665048498065 75.33476627054122 33.492607766964625 H 0.0 **** 0.06
26018 H 63.791271158456055 74.28170844339489 34.58887673594654 H 0.0 **** 0.06
26019 H 65.38155655325485 74.90844798530466 35.08778895988854 H 0.0 **** 0.06
26020 H 65.27200639661541 73.67454275929859 33.808906586451826 H 0.0 **** 0.06
26021 C 9.872874952197577 39.76196164214827 58.56175936478181 C 0.0 **** -0.24
26022 H 10.506717721060141 39.785334016326935 59.44921812484827 H 0.0 **** 0.06
26023 H 9.075508800313457 40.49757079122825 58.66643642020961 H 0.0 **** 0.06
26024 H 9.439393810762681 38.76834709170707 58.45089866933728 H 0.0 **** 0.06
26025 H 10.47234254117177 39.997688991490506 57.68180188099788 H 0.0 **** 0.06
26026 C 123.46666792669055 42.43246339611807 42.125172059884065 C 0.0 **** -0.24
26027 H 124.24153090131975 43.184218621293866 42.27777736935805 H 0.0 **** 0.06
26028 H 122.49226922817019 42.86163937598894 42.363996605790064 H 0.0 **** 0.06
26029 H 123.65695344018366 41.57824614377461 42.77554136986649 H 0.0 **** 0.06
26030 H 123.47527147447965 42.10655437576068 41.08559419447457 H 0.0 **** 0.06
26031 C 82.88782753030947 144.26996556851506 104.51762503103085 C 0.0 **** -0.24
26032 H 83.3933443915203 143.45024942504148 104.00809779937867 H 0.0 **** 0.06
26033 H 82.18184650888969 143.86647937211637 105.24401240409397 H 0.0 **** 0.06
26034 H 82.3516664529779 144.8755071656331 103.78690171137191 H 0.0 **** 0.06
26035 H 83.62445276784999 144.88762631126943 105.03148820927876 H 0.0 **** 0.06
26036 C 93.22353002661063 26.745275111968056 88.17221022893057 C 0.0 **** -0.24
26037 H 94.26807113262883 26.943554858197984 88.41313538459167 H 0.0 **** 0.06
26038 H 93.11302731883252 26.6442423852684 87.09274257438994 H 0.0 **** 0.06
26039 H 92.6071334315416 27.571772683212373 88.5249280628559 H 0.0 **** 0.06
26040 H 92.90802456083803 25.822653278342557 88.65845410862198 H 0.0 **** 0.06
26041 C 67.71964123436729 127.48428627182001 57.10443369162384 C 0.0 **** -0.24
26042 H 68.32025502760749 127.43464822338066 56.19639623876114 H 0.0 **** 0.06
26043 H 67.5707659652556 128.5276449782219 57.38341161501985 H 0.0 **** 0.06
26044 H 68.23520139488716 126.96303608608478 57.91033183157276 H 0.0 **** 0.06
26045 H 66.75269525164903 127.01397444483325 56.926492305477424 H 0.0 **** 0.06
26046 C 93.76349748761282 11.02532238292433 3.147632337100731 C 0.0 **** -0.24
26047 H 94.38891136639677 11.540478226020113 2.417847520762166 H 0.0 **** 0.06
26048 H 93.90516073319387 11.476730393015409 4.1304671675476925 H 0.0 **** 0.06
26049 H 94.04447925441622 9.972682045120266 3.1871732352138906 H 0.0 **** 0.06
26050 H 92.71762630971973 11.11170571452761 2.854695052302361 H 0.0 **** 0.06
26051 C 23.78307333552391 29.562534299698484 72.59679319257495 C 0.0 **** -0.24
26052 H 23.677940244736313 29.905963298991537 73.62509342968272 H 0.0 **** 0.06
26053 H 23.637824144642572 30.401974928576635 71.91630510965794 H 0.0 **** 0.06
26054 H 23.036253765287128 28.79543507140562 72.39124948882366 H 0.0 **** 0.06
26055 H 24.779670497492106 29.14607361615964 72.45305573240327 H 0.0 **** 0.06
26056 C 17.653316850043097 70.24228606274488 133.18118883446857 C 0.0 **** -0.24
26057 H 18.15603979900436 69.41368732335098 133.6793852174666 H 0.0 **** 0.06
26058 H 16.700280656828085 69.89863372119925 132.77715536407476 H 0.0 **** 0.06
26059 H 18.2798928157562 70.6128187662224 132.36932122740913 H 0.0 **** 0.06
26060 H 17.476018994249756 71.04352451654728 133.8980579108561 H 0.0 **** 0.06
26061 C 136.5102595693774 144.4108238386596 59.75019457718956 C 0.0 **** -0.24
26062 H 136.4119219792384 144.56322145819792 58.67495012983606 H 0.0 **** 0.06
26063 H 135.6166636249838 143.91337014523296 60.129042922218034 H 0.0 **** 0.06
26064 H 136.62726889800356 145.37489897985847 60.24490037383198 H 0.0 **** 0.06
26065 H 137.38419356623172 143.7909514163577 59.950070636554 H 0.0 **** 0.06
26066 C 116.28632239208585 71.72839954319954 2.1258301538013313 C 0.0 **** -0.24
26067 H 115.36180953367906 71.22782302808196 1.8380993368335794 H 0.0 **** 0.06
26068 H 116.44170368161284 72.5997847953252 1.4885724688502364 H 0.0 **** 0.06
26069 H 117.12407188626682 71.04022409734688 2.0106726009277622 H 0.0 **** 0.06
26070 H 116.21818431014881 72.04742964425435 3.166031051523987 H 0.0 **** 0.06
26071 C 17.998571415774506 30.30775198233038 117.9382482392946 C 0.0 **** -0.24
26072 H 17.52921106550548 31.236740080685728 117.61637432061592 H 0.0 **** 0.06
26073 H 17.358878233520784 29.46626045211221 117.67146452453947 H 0.0 **** 0.06
26074 H 18.14006059962128 30.32786839774262 119.01862086780217 H 0.0 **** 0.06
26075 H 18.965670144068042 30.199796855945714 117.44734944249423 H 0.0 **** 0.06
26076 C 72.83412194431547 133.70459856482304 74.12387359850204 C 0.0 **** -0.24
26077 H 71.87384146337352 133.57001457815474 73.62582896846685 H 0.0 **** 0.06
26078 H 73.31541475315338 134.6067928007884 73.74641805442087 H 0.0 **** 0.06
26079 H 73.46975327103895 132.84241993443106 73.92596034894945 H 0.0 **** 0.06
26080 H 72.67559965715114 133.79986476553918 75.19827899291035 H 0.0 **** 0.06
26081 C 123.0663168507138 109.54765136198533 87.68879505777119 C 0.0 **** -0.24
26082 H 123.26056394630086 108.74022686438836 86.98292564002949 H 0.0 **** 0.06
26083 H 123.97259744837893 109.75581682731324 88.26002499352845 H 0.0 **** 0.06
26084 H 122.26855272492601 109.25120930763303 88.36874162938744 H 0.0 **** 0.06
26085 H 122.76695859888652 110.44271846528271 87.14343882813145 H 0.0 **** 0.06
26086 C 30.730768610975517 5.962442072572912 75.09943934226393 C 0.0 **** -0.24
26087 H 30.440822082850055 5.504963066409346 74.15327979611449 H 0.0 **** 0.06
26088 H 31.763752843036322 5.702093062250242 75.32811995625232 H 0.0 **** 0.06
26089 H 30.079077822735044 5.5978510193515945 75.89322354479943 H 0.0 **** 0.06
26090 H 30.63827478610788 7.046337994419957 75.0215517415823 H 0.0 **** 0.06
26091 C 58.67215711193191 78.14233459083877 61.02709889807524 C 0.0 **** -0.24
26092 H 59.06754485413225 77.49588177631611 60.24324609773312 H 0.0 **** 0.06
26093 H 57.836062653197274 78.72013857329372 60.63303479855679 H 0.0 **** 0.06
26094 H 59.454539581088596 78.81998063275353 61.36788678272531 H 0.0 **** 0.06
26095 H 58.33064680911011 77.53142092540384 61.86271130970027 H 0.0 **** 0.06
26096 C 25.06238324073871 91.31126041212372 13.363487116030285 C 0.0 **** -0.24
26097 H 25.895329372171147 91.99007101399653 13.180736466141525 H 0.0 **** 0.06
26098 H 24.30488773895064 91.8173653426596 13.961667060166008 H 0.0 **** 0.06
26099 H 25.421735470778913 90.4320622731359 13.89885757809975 H 0.0 **** 0.06
26100 H 24.62874701616198 91.00447175174972 12.41110888955285 H 0.0 **** 0.06
26101 C 51.28849998999249 81.62465005879811 53.810786960402254 C 0.0 **** -0.24
26102 H 51.96770375114636 81.9279244738653 53.01335870424933 H 0.0 **** 0.06
26103 H 50.872142370464076 80.64426491152513 53.57988832488641 H 0.0 **** 0.06
26104 H 50.481104577083215 82.35259177422122 53.89595998183765 H 0.0 **** 0.06
26105 H 51.8347738435275 81.57584878593367 54.75298875847446 H 0.0 **** 0.06
26106 C 10.05631450666494 86.96206551788008 76.02196825275718 C 0.0 **** -0.24
26107 H 10.386319299570829 87.38630553724649 75.07387641958115 H 0.0 **** 0.06
26108 H 10.883411870001673 86.97222402433984 76.73228978630206 H 0.0 **** 0.06
26109 H 9.72489941523483 85.93527256280323 75.86457321977767 H 0.0 **** 0.06
26110 H 9.230114547335688 87.55340133715578 76.41586220219142 H 0.0 **** 0.06
26111 C 95.10950274128462 103.68915303945815 62.744599682571746 C 0.0 **** -0.24
26112 H 95.16545080350582 104.72693377188018 63.07509161349326 H 0.0 **** 0.06
26113 H 94.15677052679803 103.51921996427609 62.2421835074922 H 0.0 **** 0.06
26114 H 95.18756046276238 103.02887602138105 63.60808918985083 H 0.0 **** 0.06
26115 H 95.92727312751467 103.48287807091931 62.05367265724705 H 0.0 **** 0.06
26116 C 134.38200389565952 79.68519994714033 117.62737510622468 C 0.0 **** -0.24
26117 H 133.6091987506971 79.02170902214593 117.23938813282045 H 0.0 **** 0.06
26118 H 133.99663648208053 80.70442989638043 117.67169458213992 H 0.0 **** 0.06
26119 H 135.25064201846834 79.65310133909973 116.97051641490164 H 0.0 **** 0.06
26120 H 134.67063735929713 79.36123637467139 118.62761170395335 H 0.0 **** 0.06
26121 C 74.42140610138412 7.942474597998192 62.749418562971 C 0.0 **** -0.24
26122 H 75.05915509958436 7.06128098760113 62.82105615000499 H 0.0 **** 0.06
26123 H 74.29538835911904 8.380859152118969 63.73913740488341 H 0.0 **** 0.06
26124 H 73.44777045762629 7.65484703247423 62.352689546343086 H 0.0 **** 0.06
26125 H 74.88321137999793 8.672002950918007 62.084384618135516 H 0.0 **** 0.06
26126 C 126.40031744760736 92.49338274263056 86.82239895856844 C 0.0 **** -0.24
26127 H 125.998454009494 91.60802779132027 86.33015078516505 H 0.0 **** 0.06
26128 H 126.4126654103643 92.33513864270202 87.90112981559695 H 0.0 **** 0.06
26129 H 125.77474055922303 93.35448316349448 86.5880989321783 H 0.0 **** 0.06
26130 H 127.41657401820362 92.67508035568142 86.47027180816465 H 0.0 **** 0.06
26131 C 108.94460727502951 92.06086350001453 11.365172621501927 C 0.0 **** -0.24
26132 H 109.23023456202446 91.20263324480321 11.97280387964156 H 0.0 **** 0.06
26133 H 108.35620887458691 92.75336238163712 11.968044553702669 H 0.0 **** 0.06
26134 H 108.34914184519988 91.72214023296245 10.516749135404154 H 0.0 **** 0.06
26135 H 109.84101247605821 92.56404460329172 11.003249462974907 H 0.0 **** 0.06
26136 C 120.37886579581476 2.868946987643426 49.912052220939756 C 0.0 **** -0.24
26137 H 121.12939177594632 2.6230955305703105 49.161178272642246 H 0.0 **** 0.06
26138 H 120.6060312430784 2.3401046780898014 50.838574556539015 H 0.0 **** 0.06
26139 H 119.39463499864485 2.567685441510662 49.55393897323822 H 0.0 **** 0.06
26140 H 120.38608786662257 3.943323115454689 50.09471764365959 H 0.0 **** 0.06
26141 C 53.2337735073468 117.78227855172979 24.944445812178174 C 0.0 **** -0.24
26142 H 52.6264447590641 118.5503781953788 25.42404841616556 H 0.0 **** 0.06
26143 H 53.52314051239529 117.03570245037845 25.683929923481145 H 0.0 **** 0.06
26144 H 54.12809967312444 118.23995671961238 24.520562174850653 H 0.0 **** 0.06
26145 H 52.65799301562231 117.30640418535357 24.151809559936623 H 0.0 **** 0.06
26146 C 63.402991362870836 17.438663262872467 7.113242075433359 C 0.0 **** -0.24
26147 H 64.44423320645515 17.653773009999895 6.876075350871147 H 0.0 **** 0.06
26148 H 62.829387033036966 17.354291729846352 6.189416616384122 H 0.0 **** 0.06
26149 H 62.99529325766676 18.24696217194895 7.7215521038727495 H 0.0 **** 0.06
26150 H 63.34248437004612 16.501693532533977 7.666559803847139 H 0.0 **** 0.06
26151 C 12.05462793889263 101.71267538930556 130.89155469855498 C 0.0 **** -0.24
26152 H 11.198863690943732 101.76713559137232 130.2193928944051 H 0.0 **** 0.06
26153 H 12.368461412706381 100.67312088419612 130.99548717419 H 0.0 **** 0.06
26154 H 11.774570119172353 102.10707005967572 131.86916987247858 H 0.0 **** 0.06
26155 H 12.875582871374178 102.30112675213155 130.48386509015776 H 0.0 **** 0.06
26156 C 123.44093221438413 145.42835388578646 38.6559431967525 C 0.0 **** -0.24
26157 H 123.62541175933829 144.80715840532636 37.77892243772692 H 0.0 **** 0.06
26158 H 123.24813744112515 146.45368511572835 38.33982462097862 H 0.0 **** 0.06
26159 H 124.31585405740745 145.40682508099533 39.30614793564388 H 0.0 **** 0.06
26160 H 122.57626360938512 145.0450399293042 39.19755699186334 H 0.0 **** 0.06
26161 C 99.5428107768984 77.23087258659919 31.88950920698079 C 0.0 **** -0.24
26162 H 99.07350761639016 77.84004775839142 32.66166335378341 H 0.0 **** 0.06
26163 H 100.57816474613706 77.54626328785216 31.758658987409092 H 0.0 **** 0.06
26164 H 99.0030932125514 77.35621204826751 30.950622693902005 H 0.0 **** 0.06
26165 H 99.51553250719772 76.18363209559544 32.187168504033764 H 0.0 **** 0.06
26166 C 13.369387565642512 142.96389561600486 19.386690361825714 C 0.0 **** -0.24
26167 H 14.082767353427442 143.502164192849 18.761222384630422 H 0.0 **** 0.06
26168 H 12.596198062692793 142.52251966871606 18.757247597137365 H 0.0 **** 0.06
26169 H 12.91184456797518 143.6559991364409 20.093388320224783 H 0.0 **** 0.06
26170 H 13.887493849573389 142.17577780059045 19.932989803369985 H 0.0 **** 0.06
26171 C 48.594101560730365 115.15711157675132 118.7832962154862 C 0.0 **** -0.24
26172 H 49.19464100740885 114.78173410604593 119.61279069410084 H 0.0 **** 0.06
26173 H 49.07345531378539 114.89305856633554 117.83996544676249 H 0.0 **** 0.06
26174 H 48.511700490700264 116.24166696027653 118.8572394254516 H 0.0 **** 0.06
26175 H 47.600452554330275 114.71238239822985 118.82462962492478 H 0.0 **** 0.06
26176 C 100.4016801567443 98.3684728924683 131.67662967879613 C 0.0 **** -0.24
26177 H 100.13274912820015 99.31908255162286 131.21808285106164 H 0.0 **** 0.06
26178 H 99.60882814993874 97.6416479551785 131.4985170050103 H 0.0 **** 0.06
26179 H 100.53373960968389 98.50759011726423 132.7499607679712 H 0.0 **** 0.06
26180 H 101.33275282861104 98.00578114301443 131.24032668595513 H 0.0 **** 0.06
26181 C 88.7861393489843 82.88200216944185 106.03134804879267 C 0.0 **** -0.24
26182 H 89.34450643058875 83.3806623110125 105.23895283705963 H 0.0 **** 0.06
26183 H 88.4709397442951 83.6170902550566 106.77270333803904 H 0.0 **** 0.06
26184 H 89.42112699350508 82.13460850009233 106.50809885816068 H 0.0 **** 0.06
26185 H 87.90820446574105 82.39461108993913 105.60657375431839 H 0.0 **** 0.06
26186 C 57.48677788118694 65.90521942111812 22.838404120777852 C 0.0 **** -0.24
26187 H 58.24505167221537 65.83214185536477 22.058271145148076 H 0.0 **** 0.06
26188 H 56.528721187239725 66.17075645260334 22.38937579672811 H 0.0 **** 0.06
26189 H 57.77713673531686 66.67198644403496 23.556410353639713 H 0.0 **** 0.06
26190 H 57.39611201621193 64.94592791362774 23.34783065668411 H 0.0 **** 0.06
26191 C 74.75957039562499 110.18838823403257 24.85637710856318 C 0.0 **** -0.24
26192 H 74.38933141051584 111.19917034333474 25.031455876435672 H 0.0 **** 0.06
26193 H 75.32504779841517 110.16588011272921 23.92430703170473 H 0.0 **** 0.06
26194 H 73.91766094648496 109.50013379353106 24.787238368786007 H 0.0 **** 0.06
26195 H 75.40592113734124 109.89073686267636 25.681969181177095 H 0.0 **** 0.06
26196 C 122.10850895385366 19.665163171741426 49.56487525561592 C 0.0 **** -0.24
26197 H 122.75899400344295 19.418011194818746 48.7260922189768 H 0.0 **** 0.06
26198 H 122.28459472861172 20.69715877888737 49.86949599409114 H 0.0 **** 0.06
26199 H 122.32253904599034 18.997193099439983 50.39881768182072 H 0.0 **** 0.06
26200 H 121.06740534300425 19.547535941220403 49.26305074639784 H 0.0 **** 0.06
26201 C 94.46228979401303 13.983646075037058 77.74319374075836 C 0.0 **** -0.24
26202 H 94.90061032659722 13.78552152767682 76.76448248549784 H 0.0 **** 0.06
26203 H 93.77451913428533 14.825873681214404 77.6691865482882 H 0.0 **** 0.06
26204 H 95.25398283348255 14.221698478167184 78.45325152739358 H 0.0 **** 0.06
26205 H 93.92195954185516 13.100623172672016 78.08349014403743 H 0.0 **** 0.06
26206 C 60.98565040733993 27.68654873013594 127.57553997077484 C 0.0 **** -0.24
26207 H 60.35358586820922 28.526790022470152 127.2886691418226 H 0.0 **** 0.06
26208 H 60.91476976398067 27.530256062787487 128.6521180910689 H 0.0 **** 0.06
26209 H 62.01910066606507 27.901651728650506 127.30566385777793 H 0.0 **** 0.06
26210 H 60.65311882506171 26.787665340101455 127.05477863697618 H 0.0 **** 0.06
26211 C 129.90142690674915 75.32042152083677 142.49427902009523 C 0.0 **** -0.24
26212 H 129.90429057888682 74.90443426602225 141.4870217150305 H 0.0 **** 0.06
26213 H 129.0454584650163 75.98519978151707 142.61098288878247 H 0.0 **** 0.06
26214 H 130.822591231416 75.88119957903017 142.6574544474239 H 0.0 **** 0.06
26215 H 129.83565722966856 74.51047558033343 143.2208730106339 H 0.0 **** 0.06
26216 C 40.787089704206295 12.155797544114705 110.71647408840857 C 0.0 **** -0.24
26217 H 40.42507313348571 11.906469112449912 111.71446420873633 H 0.0 **** 0.06
26218 H 41.17198927189111 13.17490103812466 110.71418770569142 H 0.0 **** 0.06
26219 H 39.96712801168562 12.074504652800215 110.00249144724131 H 0.0 **** 0.06
26220 H 41.582619758881975 11.465468821379261 110.43703168429346 H 0.0 **** 0.06
26221 C 49.33049866027258 108.21153854785217 96.52567376102328 C 0.0 **** -0.24
26222 H 48.82330718930817 108.36478336440547 95.57321708190136 H 0.0 **** 0.06
26223 H 49.03258552773988 108.99217427484848 97.22553411632396 H 0.0 **** 0.06
26224 H 50.4092434431476 108.25173542478456 96.37352312391715 H 0.0 **** 0.06
26225 H 49.05640331872158 107.23669749247517 96.92996275598546 H 0.0 **** 0.06
26226 C 117.89679976976238 84.47571586671654 33.618769832484475 C 0.0 **** -0.24
26227 H 118.30861084109365 83.46821126234198 33.55938116733981 H 0.0 **** 0.06
26228 H 116.87122317255354 84.47124744756388 33.25114839190408 H 0.0 **** 0.06
26229 H 118.4986219538033 85.14968081305494 33.00908285719632 H 0.0 **** 0.06
26230 H 117.91115741290987 84.81356299019717 34.65508546208798 H 0.0 **** 0.06
26231 C 27.67797431487054 61.457816466177405 77.39602954262378 C 0.0 **** -0.24
26232 H 26.94227027493963 61.232527330339565 78.16729941343527 H 0.0 **** 0.06
26233 H 28.6570911747869 61.09725884799644 77.71111408423698 H 0.0 **** 0.06
26234 H 27.720755736884826 62.53609614478842 77.23939422563913 H 0.0 **** 0.06
26235 H 27.39098734582933 60.96747332280853 76.46624250097935 H 0.0 **** 0.06
26236 C 71.57969771887244 72.98740455827567 138.82381397505017 C 0.0 **** -0.24
26237 H 71.78460413056976 71.91906180399076 138.89854719588823 H 0.0 **** 0.06
26238 H 71.13292040147675 73.33737636642229 139.75421799634458 H 0.0 **** 0.06
26239 H 70.89115141611015 73.16792843146601 137.9993566123731 H 0.0 **** 0.06
26240 H 72.51180207689472 73.52363904739488 138.6438779785451 H 0.0 **** 0.06
26241 C 122.07068727216077 78.24724977552825 72.67875335947039 C 0.0 **** -0.24
26242 H 122.06271554317121 79.22453098739635 73.16330558663662 H 0.0 **** 0.06
26243 H 123.05308938235757 78.06752695833379 72.24133282084262 H 0.0 **** 0.06
26244 H 121.31414331143444 78.22429465927874 71.89530704213148 H 0.0 **** 0.06
26245 H 121.85365124051978 77.47486191769471 73.41660717633096 H 0.0 **** 0.06
26246 C 13.41587174000864 13.487115334706822 1.321200118415561 C 0.0 **** -0.24
26247 H 12.890654114617632 13.236772007657194 2.2428532826904757 H 0.0 **** 0.06
26248 H 12.819696975957015 13.166855915254615 0.46541010310596675 H 0.0 **** 0.06
26249 H 14.38000908566056 12.97948391121622 1.3033566399068945 H 0.0 **** 0.06
26250 H 13.570863824120977 14.56475501226737 1.272455289814161 H 0.0 **** 0.06
26251 C 71.03344502451955 50.6416809469068 118.98388927803167 C 0.0 **** -0.24
26252 H 70.44878106412892 50.635394954791735 119.9034160071191 H 0.0 **** 0.06
26253 H 71.86398179383895 51.34060056113911 119.0856633782103 H 0.0 **** 0.06
26254 H 70.39903635742343 50.94896317339372 118.15239894118345 H 0.0 **** 0.06
26255 H 71.42091400013652 49.640572573259234 118.79474194222452 H 0.0 **** 0.06
26256 C 124.8613322752272 45.15301853695445 69.1234288520495 C 0.0 **** -0.24
26257 H 124.37068343024502 45.70621646360465 69.92395970089552 H 0.0 **** 0.06
26258 H 124.18148319516195 45.05848575785777 68.27675673528691 H 0.0 **** 0.06
26259 H 125.13535215933734 44.16059583026916 69.4833930650403 H 0.0 **** 0.06
26260 H 125.75922845391077 45.68625762975077 68.81199764848458 H 0.0 **** 0.06
26261 C 69.31079513833619 50.24735586867385 61.375175964635986 C 0.0 **** -0.24
26262 H 68.67189257788168 50.37995597980964 60.50212520976076 H 0.0 **** 0.06
26263 H 70.32061766564922 50.58520867180275 61.1410331243283 H 0.0 **** 0.06
26264 H 69.33491061287341 49.193166186956574 61.65081421541538 H 0.0 **** 0.06
26265 H 68.91535063347095 50.83144892743378 62.205891209483525 H 0.0 **** 0.06
26266 C 44.68041172646919 11.867260379392178 90.72086521721671 C 0.0 **** -0.24
26267 H 45.55547186866194 12.389534500224414 90.33468861749687 H 0.0 **** 0.06
26268 H 43.88792603572415 12.587811388131541 90.92578134377015 H 0.0 **** 0.06
26269 H 44.94514996600695 11.34634735991986 91.64072616557566 H 0.0 **** 0.06
26270 H 44.33243367683457 11.145630402839856 89.98069062971052 H 0.0 **** 0.06
26271 C 132.52476710339494 2.5099686906476677 143.3243013171412 C 0.0 **** -0.24
26272 H 133.10438966740006 2.175561174324855 142.4637815900457 H 0.0 **** 0.06
26273 H 132.41785439035357 3.5943751732313274 143.29123828028037 H 0.0 **** 0.06
26274 H 133.03784912988533 2.22293458078056 144.2416906090089 H 0.0 **** 0.06
26275 H 131.5381578002554 2.046788905451365 143.2999603132803 H 0.0 **** 0.06
26276 C 83.145961872193 61.74372879332242 45.51817332116184 C 0.0 **** -0.24
26277 H 83.34861711511482 60.74396315714161 45.134396807871866 H 0.0 **** 0.06
26278 H 84.0708585644808 62.32012648504892 45.535281793096345 H 0.0 **** 0.06
26279 H 82.74423373061583 61.6702138008519 46.528583597149094 H 0.0 **** 0.06
26280 H 82.4207314436658 62.24046432430957 44.873155830984985 H 0.0 **** 0.06
26281 C 104.77997116033447 8.382007171174621 144.27913868518397 C 0.0 **** -0.24
26282 H 104.81465565848545 7.4116751515919574 143.7846100014926 H 0.0 **** 0.06
26283 H 103.7410063803909 8.674197803453765 144.43346217758346 H 0.0 **** 0.06
26284 H 105.27793588290932 9.124936743800568 143.65737618092606 H 0.0 **** 0.06
26285 H 105.28475804012261 8.316663830847155 145.24362735976226 H 0.0 **** 0.06
26286 C 125.12747170342126 23.765502910089424 24.74896342909971 C 0.0 **** -0.24
26287 H 125.35337609152245 23.759278110651394 25.815776159606436 H 0.0 **** 0.06
26288 H 124.07914065578072 24.02587354627451 24.6022151665766 H 0.0 **** 0.06
26289 H 125.31820303917354 22.77647470359443 24.33219410768166 H 0.0 **** 0.06
26290 H 125.75873773912596 24.498970510851393 24.24863722526839 H 0.0 **** 0.06
26291 C 41.57566609408542 36.75233195170543 128.62993199710914 C 0.0 **** -0.24
26292 H 40.884566380958546 37.336838331013524 128.02181159944277 H 0.0 **** 0.06
26293 H 41.974714257558176 37.378148281565586 129.42790528052015 H 0.0 **** 0.06
26294 H 42.3940987830361 36.39286956926881 128.006372364334 H 0.0 **** 0.06
26295 H 41.04767875176988 35.90249389385917 129.06302616523308 H 0.0 **** 0.06
26296 C 102.30554571080991 21.78776051619019 3.0024890353696208 C 0.0 **** -0.24
26297 H 103.12917882022887 21.096565394451318 2.8202618289637087 H 0.0 **** 0.06
26298 H 101.46103019606237 21.242879993718503 3.424347609316669 H 0.0 **** 0.06
26299 H 102.00732647609982 22.251021640034097 2.063036413424868 H 0.0 **** 0.06
26300 H 102.62805937328258 22.559059644244712 3.7020606888974044 H 0.0 **** 0.06
26301 C 6.3709794181520465 130.82511344037937 14.950698531919045 C 0.0 **** -0.24
26302 H 5.845686672371755 129.87819787813848 15.075483738767502 H 0.0 **** 0.06
26303 H 7.426385484997013 130.63191529624729 14.758268249812602 H 0.0 **** 0.06
26304 H 6.269671548668725 131.41879802066424 15.859264564819114 H 0.0 **** 0.06
26305 H 5.941688721347475 131.37080746140046 14.110884030321074 H 0.0 **** 0.06
26306 C 141.16257192150988 29.576837273600773 91.30013231968903 C 0.0 **** -0.24
26307 H 140.2543444227432 29.512204977499394 90.70059133631173 H 0.0 **** 0.06
26308 H 141.0833867229781 30.417606973689246 91.98957407159705 H 0.0 **** 0.06
26309 H 142.02037308342224 29.724827422287646 90.64326930004583 H 0.0 **** 0.06
26310 H 141.29173253458544 28.65371304922911 91.86430344297821 H 0.0 **** 0.06
26311 C 2.9835163383607437 66.14766805947114 61.74219978566785 C 0.0 **** -0.24
26312 H 3.894337414583333 66.3397748261857 62.30836036997016 H 0.0 **** 0.06
26313 H 3.1416490415399494 66.41655352373904 60.697539278916594 H 0.0 **** 0.06
26314 H 2.1683218816176293 66.74484622012505 62.15276185093123 H 0.0 **** 0.06
26315 H 2.7287112071967954 65.0896995138754 61.811068035303094 H 0.0 **** 0.06
26316 C 96.75310558409936 19.38066679770573 26.025450985657386 C 0.0 **** -0.24
26317 H 97.62331407855444 18.777241155198453 25.769778328409103 H 0.0 **** 0.06
26318 H 96.50310357361272 20.031114991561793 25.186813356526642 H 0.0 **** 0.06
26319 H 96.976204708354 19.986871093336674 26.903060808358504 H 0.0 **** 0.06
26320 H 95.9082554965664 18.72585928641695 26.24181041793932 H 0.0 **** 0.06
26321 C 23.115712975323817 3.094397311884819 94.38673147204831 C 0.0 **** -0.24
26322 H 22.231573324041392 3.3052489355841885 93.78524867156962 H 0.0 **** 0.06
26323 H 23.492245506430947 4.02225214019839 94.81788873828229 H 0.0 **** 0.06
26324 H 23.88464317601742 2.647777796268059 93.75661224780274 H 0.0 **** 0.06
26325 H 22.853797923223738 2.401737535213556 95.18602666060615 H 0.0 **** 0.06
26326 C 125.48976016076142 126.25924873920164 90.24665148881088 C 0.0 **** -0.24
26327 H 126.16817613107787 126.99074964068868 89.80753863160021 H 0.0 **** 0.06
26328 H 124.51031676141895 126.71436468464165 90.3946954391545 H 0.0 **** 0.06
26329 H 125.88487174026079 125.92829534883876 91.20747645792324 H 0.0 **** 0.06
26330 H 125.39606750795178 125.4035551855757 89.57825406967942 H 0.0 **** 0.06
26331 C 127.85875328204602 22.250900273219365 82.77733461406166 C 0.0 **** -0.24
26332 H 128.64037834781774 22.746361487456163 83.35487545233765 H 0.0 **** 0.06
26333 H 127.29522172995516 22.99715699018698 82.21644421420812 H 0.0 **** 0.06
26334 H 127.18847525302829 21.721121215046047 83.45316177219317 H 0.0 **** 0.06
26335 H 128.31292498103477 21.542570522335005 82.08469552119712 H 0.0 **** 0.06
26336 C 140.4594339386032 31.00017940834431 101.66863650681421 C 0.0 **** -0.24
26337 H 140.8001737059286 31.77293615303242 100.97952017231157 H 0.0 **** 0.06
26338 H 140.15805271009316 30.117678592384124 101.10226943313039 H 0.0 **** 0.06
26339 H 139.60963222113784 31.372690980782266 102.23990704675349 H 0.0 **** 0.06
26340 H 141.2684354910763 30.736930983496023 102.34841187718739 H 0.0 **** 0.06
26341 C 26.27923242296177 53.94573329353187 68.97084290157518 C 0.0 **** -0.24
26342 H 27.358892965861457 54.07939927346314 69.04819583382933 H 0.0 **** 0.06
26343 H 25.8403298617625 54.815033438031264 68.48119946446178 H 0.0 **** 0.06
26344 H 25.854718217131605 53.83768714882632 69.96974564236857 H 0.0 **** 0.06
26345 H 26.06505226682893 53.051316119073476 68.38634940431808 H 0.0 **** 0.06
26346 C 34.293452691167545 86.30054461050221 136.69827227235496 C 0.0 **** -0.24
26347 H 33.9349759895656 87.2666855375806 137.05202785897097 H 0.0 **** 0.06
26348 H 35.37054320924125 86.34910595660266 136.5366562775253 H 0.0 **** 0.06
26349 H 33.7961736973659 86.05047451445517 135.76006732092785 H 0.0 **** 0.06
26350 H 34.07055178681733 85.53591956806201 137.44245412479918 H 0.0 **** 0.06
26351 C 142.99484205864962 46.54650537084167 15.434449074866848 C 0.0 **** -0.24
26352 H 142.55470638046228 46.822175685201856 16.392255065380255 H 0.0 **** 0.06
26353 H 142.58181895579565 45.59281866931421 15.106049194030334 H 0.0 **** 0.06
26354 H 144.07589911933835 46.45739306240371 15.542576471094605 H 0.0 **** 0.06
26355 H 142.76539067554512 47.31520978281918 14.695864260417181 H 0.0 **** 0.06
26356 C 126.28913524149931 27.486657787203036 82.09841274328767 C 0.0 **** -0.24
26357 H 125.7025014803965 28.349791293707483 81.78627942306721 H 0.0 **** 0.06
26358 H 125.64381335822225 26.609631955523277 82.15371445100342 H 0.0 **** 0.06
26359 H 126.7241476042067 27.679948348839126 83.07967568430263 H 0.0 **** 0.06
26360 H 127.08596029418607 27.30768659864212 81.3763905461748 H 0.0 **** 0.06
26361 C 136.92194409909436 88.55775544053621 86.4762604338687 C 0.0 **** -0.24
26362 H 137.47300850766393 88.46660934087713 87.41258373691119 H 0.0 **** 0.06
26363 H 137.25694143774814 87.78836575610457 85.78121068241582 H 0.0 **** 0.06
26364 H 137.1000068163008 89.54215528701069 86.04406663139115 H 0.0 **** 0.06
26365 H 135.85646437403815 88.4340091279977 86.66985459514163 H 0.0 **** 0.06
26366 C 12.114538430621195 117.62753508298891 109.94264341739097 C 0.0 **** -0.24
26367 H 12.615779508206202 117.27100546590765 110.84276226017357 H 0.0 **** 0.06
26368 H 11.057561626736799 117.78834100049028 110.15572416517455 H 0.0 **** 0.06
26369 H 12.217561403225858 116.88511262239422 109.15127431758617 H 0.0 **** 0.06
26370 H 12.56734142411787 118.56617825960404 109.62213388037628 H 0.0 **** 0.06
26371 C 55.29543031841244 65.49383330287293 29.657214083087894 C 0.0 **** -0.24
26372 H 54.51699971158861 65.77586998499186 28.94893450868892 H 0.0 **** 0.06
26373 H 55.86059933666522 64.65026117039764 29.259312098549856 H 0.0 **** 0.06
26374 H 54.83795140256109 65.20985940673211 30.605268824102467 H 0.0 **** 0.06
26375 H 55.965485137458245 66.33885069022716 29.815877422629455 H 0.0 **** 0.06
26376 C 142.43530968118014 109.3035606102601 9.813175418268543 C 0.0 **** -0.24
26377 H 143.22899604398233 109.48519645668058 9.08857051353877 H 0.0 **** 0.06
26378 H 142.74100635006002 108.50903871932549 10.494862637696968 H 0.0 **** 0.06
26379 H 141.52720308093282 109.00407517508908 9.289919481815815 H 0.0 **** 0.06
26380 H 142.24443314636093 110.21516236000987 10.37984667664304 H 0.0 **** 0.06
26381 C 55.86167058709725 130.05834522606156 57.831687194718825 C 0.0 **** -0.24
26382 H 55.53877645832125 129.0665540131638 57.51551721185467 H 0.0 **** 0.06
26383 H 56.37366356746497 130.55391626739907 57.007322959330935 H 0.0 **** 0.06
26384 H 56.54072493741472 129.96487384450165 58.67937888454826 H 0.0 **** 0.06
26385 H 54.992376538776284 130.64547882751398 58.1259979838639 H 0.0 **** 0.06
26386 C 18.309719861302142 145.5692027318312 144.7695178385201 C 0.0 **** -0.24
26387 H 18.659362380268988 145.4986281862061 145.7990391821748 H 0.0 **** 0.06
26388 H 18.119261718780933 146.61377766080963 144.52089390733929 H 0.0 **** 0.06
26389 H 17.390311261126783 144.99531512738255 144.65842467179192 H 0.0 **** 0.06
26390 H 19.071257498132866 145.1695034962036 144.09939107866887 H 0.0 **** 0.06
26391 C 116.0914239956956 94.37789143047503 100.16381030251048 C 0.0 **** -0.24
26392 H 117.17776164360572 94.3690277226626 100.2646911507759 H 0.0 **** 0.06
26393 H 115.68486827996446 93.44055918465095 100.54361763353833 H 0.0 **** 0.06
26394 H 115.82632859072618 94.49066328012246 99.11264389052172 H 0.0 **** 0.06
26395 H 115.68075104894223 95.21075750032001 100.73352662155492 H 0.0 **** 0.06
26396 C 136.9096912632837 134.59889979051923 64.27238362714357 C 0.0 **** -0.24
26397 H 136.95929145365776 135.55468694330756 64.79290796385274 H 0.0 **** 0.06
26398 H 137.92033221275517 134.23277098238316 64.08948338581274 H 0.0 **** 0.06
26399 H 136.39360041678054 134.72954204407267 63.32129597028157 H 0.0 **** 0.06
26400 H 136.36728699526466 133.87809015437188 64.88420629312904 H 0.0 **** 0.06
26401 C 134.87074461386578 25.519488835192448 138.89031419245873 C 0.0 **** -0.24
26402 H 134.7728358560513 24.61575894131218 138.2886256841911 H 0.0 **** 0.06
26403 H 135.40655997604412 26.278095200598727 138.31991769081813 H 0.0 **** 0.06
26404 H 135.42492851072367 25.290613768373788 139.8007571187918 H 0.0 **** 0.06
26405 H 133.88068778770548 25.89168118588161 139.1511803922595 H 0.0 **** 0.06
26406 C 120.85704328357976 145.5716331635786 53.2067727768478 C 0.0 **** -0.24
26407 H 120.8538637022332 144.4882219578687 53.330595192283454 H 0.0 **** 0.06
26408 H 120.16161016410821 145.84791975403996 52.414335785888795 H 0.0 **** 0.06
26409 H 121.86084363899899 145.9037434881975 52.941460726752155 H 0.0 **** 0.06
26410 H 120.5519516130904 146.04449904120148 54.139526640473036 H 0.0 **** 0.06
26411 C 4.777160560411033 106.54027760021705 99.39582837701684 C 0.0 **** -0.24
26412 H 5.624340111754606 105.95771012972637 99.03473168672772 H 0.0 **** 0.06
26413 H 4.030233811885353 106.62107800116206 98.60548182866364 H 0.0 **** 0.06
26414 H 5.116304194447309 107.53645181828159 99.67961423120036 H 0.0 **** 0.06
26415 H 4.338309483157616 106.04497213681037 100.26151197534787 H 0.0 **** 0.06
26416 C 41.21409155788365 11.720115590440933 6.629082230569594 C 0.0 **** -0.24
26417 H 40.41048234489659 12.243781276767173 7.146780380853187 H 0.0 **** 0.06
26418 H 41.81666908418771 11.172845191637215 7.355032915960294 H 0.0 **** 0.06
26419 H 41.84125427175701 12.442924678394192 6.107083325975111 H 0.0 **** 0.06
26420 H 40.788560532662984 11.022103892880864 5.909226104227514 H 0.0 **** 0.06
26421 C 101.04045372386426 52.62595369512081 97.97310398694665 C 0.0 **** -0.24
26422 H 100.64938979436737 52.81027580640148 98.97345004543166 H 0.0 **** 0.06
26423 H 101.9441409547945 53.21623893741568 97.82151699471834 H 0.0 **** 0.06
26424 H 100.29245630243464 52.90871172641795 97.2331164174415 H 0.0 **** 0.06
26425 H 101.27543160742019 51.56629889772901 97.86510827953035 H 0.0 **** 0.06
26426 C 1.1346855001419272 78.90585653587326 123.05066288307142 C 0.0 **** -0.24
26427 H 0.5487364104822632 79.46772909486738 122.32343198477021 H 0.0 **** 0.06
26428 H 0.8101369540986525 77.86524458840663 123.05204745572959 H 0.0 **** 0.06
26429 H 0.9877545134008301 79.33347542637253 124.0428782339633 H 0.0 **** 0.06
26430 H 2.190418302418834 78.9572743022014 122.78572075792262 H 0.0 **** 0.06
26431 C 73.90118988303394 124.28738168277405 39.60903094409514 C 0.0 **** -0.24
26432 H 74.8176539398417 124.58547672299984 39.0989722102089 H 0.0 **** 0.06
26433 H 73.36784409975022 123.55712030131488 39.00072799967393 H 0.0 **** 0.06
26434 H 73.27039941984371 125.16267768839181 39.76340121444326 H 0.0 **** 0.06
26435 H 74.1500275706157 123.84543058848988 40.57352506287981 H 0.0 **** 0.06
26436 C 102.98373554611577 47.95174837217752 84.69425593123837 C 0.0 **** -0.24
26437 H 103.33088083559367 48.549635985732735 83.8510682399279 H 0.0 **** 0.06
26438 H 102.49238770924121 48.59935858255777 85.42046472995784 H 0.0 **** 0.06
26439 H 103.83404936182596 47.45788396438917 85.16460714121982 H 0.0 **** 0.06
26440 H 102.27722299059798 47.200809393129106 84.33971879065989 H 0.0 **** 0.06
26441 C 140.15530601136507 55.86530184249844 11.545798880472667 C 0.0 **** -0.24
26442 H 139.55692305357482 55.85335251175243 10.635215598384384 H 0.0 **** 0.06
26443 H 141.09344608004258 55.33918849142481 11.371368906104436 H 0.0 **** 0.06
26444 H 139.60480941923345 55.37182004252796 12.347494685199493 H 0.0 **** 0.06
26445 H 140.36298227814282 56.89684364503856 11.830388020235368 H 0.0 **** 0.06
26446 C 35.86594558580835 32.40753682986167 6.976598238912146 C 0.0 **** -0.24
26447 H 35.68655953624807 32.22695897950456 8.036139248773228 H 0.0 **** 0.06
26448 H 36.407545873296016 33.34622269083292 6.854181172270401 H 0.0 **** 0.06
26449 H 34.911207144070076 32.4680442201373 6.452342247763728 H 0.0 **** 0.06
26450 H 36.45675938802552 31.590361763423743 6.563743757748558 H 0.0 **** 0.06
26451 C 31.93003986240538 36.49880458827899 97.07276919533385 C 0.0 **** -0.24
26452 H 31.906591417473464 36.90255178771459 98.0853294641669 H 0.0 **** 0.06
26453 H 30.94061922145829 36.58295907531664 96.62454418123002 H 0.0 **** 0.06
26454 H 32.22748806418426 35.450243591802256 97.10662689773758 H 0.0 **** 0.06
26455 H 32.64891547481736 37.060414806346905 96.47565384559343 H 0.0 **** 0.06
26456 C 107.77181527636911 53.59569447637783 23.455058358463987 C 0.0 **** -0.24
26457 H 108.13503911385162 52.61885508253357 23.135180014474457 H 0.0 **** 0.06
26458 H 106.88361778431654 53.85834645594839 22.881305794901863 H 0.0 **** 0.06
26459 H 108.54732605407587 54.343640032171024 23.286602357266958 H 0.0 **** 0.06
26460 H 107.52433032314268 53.561484172283926 24.515570360222227 H 0.0 **** 0.06
26461 C 130.07668791179546 125.59542880598227 6.792105231340777 C 0.0 **** -0.24
26462 H 130.17420296167325 126.51494370017205 6.214288560421778 H 0.0 **** 0.06
26463 H 129.04751283548 125.24087645507979 6.739625044719496 H 0.0 **** 0.06
26464 H 130.34166730506473 125.78968617293314 7.831196600599512 H 0.0 **** 0.06
26465 H 130.74348026499993 124.83689606480692 6.382079701882084 H 0.0 **** 0.06
26466 C 103.14379878328745 32.70308676284469 79.84447872652869 C 0.0 **** -0.24
26467 H 103.73198218021511 33.1964905492857 80.6182893592752 H 0.0 **** 0.06
26468 H 102.2146360427876 32.33120484780076 80.27678574472908 H 0.0 **** 0.06
26469 H 103.71275040030416 31.86961723976782 79.43192021071961 H 0.0 **** 0.06
26470 H 102.91756370739598 33.41616106015019 79.05176400403083 H 0.0 **** 0.06
26471 C 87.32002264462218 27.515608657469784 140.81220135400605 C 0.0 **** -0.24
26472 H 87.36731770754446 27.784285741533665 139.7566689203503 H 0.0 **** 0.06
26473 H 86.53541288993995 28.095251746145152 141.29847526572686 H 0.0 **** 0.06
26474 H 88.2777930839093 27.730524720922347 141.2852888023281 H 0.0 **** 0.06
26475 H 87.09866004441193 26.4522816972364 140.90633046636324 H 0.0 **** 0.06
26476 C 103.68786876039121 132.2351225129739 100.1785657101899 C 0.0 **** -0.24
26477 H 103.66700309358012 132.15613018099708 101.26584799408143 H 0.0 **** 0.06
26478 H 104.61453105438827 132.7186040724624 99.86744270993547 H 0.0 **** 0.06
26479 H 102.8380163228882 132.82791572027944 99.84138933052472 H 0.0 **** 0.06
26480 H 103.63206880702873 131.2394148151314 99.74080737719262 H 0.0 **** 0.06
26481 C 75.29644770982642 53.3922756506457 58.619080133856286 C 0.0 **** -0.24
26482 H 75.22677247917821 52.59279994367495 57.8806507840401 H 0.0 **** 0.06
26483 H 75.5702799928359 54.32331525188533 58.121787380507456 H 0.0 **** 0.06
26484 H 76.05599544554744 53.13796072692533 59.35823576433003 H 0.0 **** 0.06
26485 H 74.33395082158572 53.51346984438517 59.11458950723886 H 0.0 **** 0.06
26486 C 92.2355347186843 72.29479810895492 127.96023691393228 C 0.0 **** -0.24
26487 H 91.68884315019305 71.35637266460304 128.04532423292972 H 0.0 **** 0.06
26488 H 92.91383129088781 72.2437008100764 127.10848535044211 H 0.0 **** 0.06
26489 H 92.80713291516766 72.46631714213555 128.8719526522075 H 0.0 **** 0.06
26490 H 91.53063552574507 73.11395645167619 127.81429623489514 H 0.0 **** 0.06
26491 C 77.60263268699333 94.14301158376627 43.29190827501432 C 0.0 **** -0.24
26492 H 78.49618499001892 93.95906054110075 43.8889855074235 H 0.0 **** 0.06
26493 H 76.7327548995577 93.72988416167026 43.802585537744804 H 0.0 **** 0.06
26494 H 77.71264355216951 93.66699293507246 42.3180629551579 H 0.0 **** 0.06
26495 H 77.4702436644798 95.21710941808244 43.158563142357934 H 0.0 **** 0.06
26496 C 101.44088312658278 73.71193182512879 15.022328138274986 C 0.0 **** -0.24
26497 H 102.27477772471917 73.36905353187274 14.409666583854346 H 0.0 **** 0.06
26498 H 100.5235779560669 73.22415337089777 14.691708529590699 H 0.0 **** 0.06
26499 H 101.33612980387244 74.79223526978515 14.92053856204808 H 0.0 **** 0.06
26500 H 101.63026917604384 73.46186058186929 16.065575058065463 H 0.0 **** 0.06
26501 C 136.58044436612786 66.8733392635689 99.18795269739275 C 0.0 **** -0.24
26502 H 136.79842942300488 65.83238620364905 99.42763615103803 H 0.0 **** 0.06
26503 H 135.56007025316572 66.9524574412745 98.81195414638555 H 0.0 **** 0.06
26504 H 137.2766929833388 67.22439095197065 98.42644927513251 H 0.0 **** 0.06
26505 H 136.68562879696034 67.48277652517297 100.08524715007235 H 0.0 **** 0.06
26506 C 27.995876930562993 77.53959394832219 100.58543299306262 C 0.0 **** -0.24
26507 H 28.87697666015403 77.05832748985449 100.1606191834872 H 0.0 **** 0.06
26508 H 28.181024329392486 78.60914030762484 100.68984068647245 H 0.0 **** 0.06
26509 H 27.783132459246517 77.11052788970267 101.5641331334482 H 0.0 **** 0.06
26510 H 27.142226392194353 77.38182873070167 99.92620101950484 H 0.0 **** 0.06
26511 C 119.93497230896583 33.90713166044952 37.849910656892526 C 0.0 **** -0.24
26512 H 120.41035990488984 34.806217176621345 38.24266094200019 H 0.0 **** 0.06
26513 H 119.58626598035522 34.095941928909724 36.834040820302775 H 0.0 **** 0.06
26514 H 119.0884231317134 33.639869380700105 38.48133064577496 H 0.0 **** 0.06
26515 H 120.65561618039641 33.0900585115194 37.84076030137668 H 0.0 **** 0.06
26516 C 14.419587325198023 80.79493059267685 112.25327125191194 C 0.0 **** -0.24
26517 H 14.52998753780983 79.7258857615355 112.42966783260943 H 0.0 **** 0.06
26518 H 15.033738225842768 81.34666875202527 112.96604655911682 H 0.0 **** 0.06
26519 H 13.373421666763278 81.0774787302804 112.37896114198435 H 0.0 **** 0.06
26520 H 14.740309982394166 81.03076277347202 111.23863730316475 H 0.0 **** 0.06
26521 C 97.39011289839331 122.74924460782182 58.39774170451358 C 0.0 **** -0.24
26522 H 97.10168974282723 122.6290192482013 57.3531992835256 H 0.0 **** 0.06
26523 H 98.27726241180542 123.37972667000292 58.459182862669195 H 0.0 **** 0.06
26524 H 97.60683943128048 121.77251970200831 58.82949387048575 H 0.0 **** 0.06
26525 H 96.5725794187347 123.21620783347487 58.94789649628707 H 0.0 **** 0.06
26526 C 19.451907747870393 80.53697354920224 142.343426462117 C 0.0 **** -0.24
26527 H 18.601188340286626 80.28703446598581 142.97754226314953 H 0.0 **** 0.06
26528 H 19.68719175281838 79.6897074132649 141.6993554832127 H 0.0 **** 0.06
26529 H 20.315247784695735 80.76838825615815 142.96934436673556 H 0.0 **** 0.06
26530 H 19.20592396523213 81.40259272258854 141.72976185753137 H 0.0 **** 0.06
26531 C 136.78045873872335 132.40407210343244 136.9554639480045 C 0.0 **** -0.24
26532 H 137.76015889716516 131.92869818376562 137.00379751431478 H 0.0 **** 0.06
26533 H 136.8717092087714 133.37375111896583 136.465943917036 H 0.0 **** 0.06
26534 H 136.39345504853688 132.54167117739615 137.965099790094 H 0.0 **** 0.06
26535 H 136.0974133203722 131.7724540316689 136.3880659967647 H 0.0 **** 0.06
26536 C 136.29923448857275 81.55132198262706 122.03881735503893 C 0.0 **** -0.24
26537 H 136.94650296475223 82.36799433916099 121.72073460812533 H 0.0 **** 0.06
26538 H 135.94958194060118 81.73995893266412 123.05401788172685 H 0.0 **** 0.06
26539 H 136.85865568781483 80.61507856489806 122.01564051960082 H 0.0 **** 0.06
26540 H 135.44508776630576 81.48155746781732 121.36595247596836 H 0.0 **** 0.06
26541 C 127.32949808330744 2.2118719221088377 32.37815372597893 C 0.0 **** -0.24
26542 H 127.13171951044899 1.5896197625324184 31.50499176523948 H 0.0 **** 0.06
26543 H 126.96830740058573 1.706493973293508 33.27351750205449 H 0.0 **** 0.06
26544 H 126.81720671043257 3.1671433112648266 32.26703673740056 H 0.0 **** 0.06
26545 H 128.40314981496857 2.3834846608638927 32.46541767794051 H 0.0 **** 0.06
26546 C 58.39566515102352 41.51017705665262 46.011291668321775 C 0.0 **** -0.24
26547 H 58.48908303474646 42.37597613495652 46.6673480527123 H 0.0 **** 0.06
26548 H 57.3675427705937 41.149782838094495 46.030817023711876 H 0.0 **** 0.06
26549 H 59.0650525062548 40.721570509151746 46.3545134104601 H 0.0 **** 0.06
26550 H 58.66327008376555 41.79569566109083 44.99433169386208 H 0.0 **** 0.06
26551 C 141.84141124172106 23.615486396839174 86.47543606055979 C 0.0 **** -0.24
26552 H 142.17160607772533 24.189913845915953 85.61063474296338 H 0.0 **** 0.06
26553 H 141.98406573269472 24.206512827371057 87.38054786881486 H 0.0 **** 0.06
26554 H 142.42530835361464 22.697109320105085 86.54653923280995 H 0.0 **** 0.06
26555 H 140.78622098865458 23.367374221267426 86.36560560680013 H 0.0 **** 0.06
26556 C 5.970218708981577 66.02861534226649 90.71119927809494 C 0.0 **** -0.24
26557 H 5.981977664265315 66.0964264105149 89.62362709277372 H 0.0 **** 0.06
26558 H 5.662627986942965 66.9870020989704 91.13076180558309 H 0.0 **** 0.06
26559 H 6.9683489299116275 65.77895980715155 91.06982726517464 H 0.0 **** 0.06
26560 H 5.268499885407607 65.25378305587611 91.01892560034466 H 0.0 **** 0.06
26561 C 84.84468761563136 46.583485725586684 41.79587675629082 C 0.0 **** -0.24
26562 H 85.50004446773553 47.32892280758354 42.245978783271326 H 0.0 **** 0.06
26563 H 83.866957001465 47.0272148593249 41.60572881910315 H 0.0 **** 0.06
26564 H 84.73440225992407 45.73926815654086 42.47614046397935 H 0.0 **** 0.06
26565 H 85.27691870158976 46.23901325777979 40.85691996230068 H 0.0 **** 0.06
26566 C 75.11220377973669 26.307282256350092 93.98959182658604 C 0.0 **** -0.24
26567 H 76.09076631077224 26.066566931646065 93.57505067077008 H 0.0 **** 0.06
26568 H 74.80162968000369 25.51512002701324 94.67123150382108 H 0.0 **** 0.06
26569 H 74.3874049339041 26.39615844476083 93.18072501045819 H 0.0 **** 0.06
26570 H 75.17010773034346 27.252168668285506 94.53150489439386 H 0.0 **** 0.06
26571 C 15.25995435519377 79.66417760049075 17.749476383232263 C 0.0 **** -0.24
26572 H 15.919041524038448 80.49751891169666 17.992112412874917 H 0.0 **** 0.06
26573 H 15.196291168327264 78.99173435133497 18.605132846945025 H 0.0 **** 0.06
26574 H 15.659073068661513 79.12419024435945 16.890393244472193 H 0.0 **** 0.06
26575 H 14.267478049164424 80.04393909389603 17.509739391206836 H 0.0 **** 0.06
26576 C 119.96144980892406 19.76762736075966 34.15267105208068 C 0.0 **** -0.24
26577 H 119.40221001392239 19.423351393491544 35.02277323999613 H 0.0 **** 0.06
26578 H 119.35688911688818 20.478570371654882 33.59034618208403 H 0.0 **** 0.06
26579 H 120.20596589196957 18.915754454352054 33.518433465095086 H 0.0 **** 0.06
26580 H 120.88130635665202 20.25246565985276 34.48126152463283 H 0.0 **** 0.06
26581 C 57.50455682484994 109.75347993391712 79.79052366396077 C 0.0 **** -0.24
26582 H 57.909761532424426 110.69207992639328 80.16996027332047 H 0.0 **** 0.06
26583 H 56.97424380747643 109.93898432311558 78.85700715221877 H 0.0 **** 0.06
26584 H 56.81518002679752 109.3329500579669 80.52344125855453 H 0.0 **** 0.06
26585 H 58.31902997919079 109.05167624600453 79.61389151269127 H 0.0 **** 0.06
26586 C 125.26683232810846 48.39367321075423 44.09679739766199 C 0.0 **** -0.24
26587 H 126.27855322274326 48.7848685878791 44.20687433489941 H 0.0 **** 0.06
26588 H 125.0047134403317 47.812655596401996 44.98087268125404 H 0.0 **** 0.06
26589 H 125.21805384126671 47.75543032196856 43.21406549751424 H 0.0 **** 0.06
26590 H 124.56768701328289 49.22189231862083 43.984977017018736 H 0.0 **** 0.06
26591 C 131.16208269468862 31.43085001546462 98.65440106394482 C 0.0 **** -0.24
26592 H 130.3247624561017 31.734752528975257 98.02600390660461 H 0.0 **** 0.06
26593 H 131.24413192373177 32.11168991070716 99.50290383383191 H 0.0 **** 0.06
26594 H 132.0825725252246 31.462179805521387 98.0724708609406 H 0.0 **** 0.06
26595 H 130.99573714921732 30.416762280810836 99.01711596673724 H 0.0 **** 0.06
26596 C 4.838128953573687 106.28525332755436 16.29571595406256 C 0.0 **** -0.24
26597 H 4.080218679570493 107.03662885688738 16.51983149516633 H 0.0 **** 0.06
26598 H 5.65476725897571 106.74788584147001 15.741526519408893 H 0.0 **** 0.06
26599 H 4.39494252042374 105.49026728930914 15.69616456249554 H 0.0 **** 0.06
26600 H 5.220912474655137 105.8681003356433 17.226985002526845 H 0.0 **** 0.06
26601 C 39.44366442453996 124.34928570797808 37.28478146408057 C 0.0 **** -0.24
26602 H 40.13486353550978 124.38590232236169 36.443936756515484 H 0.0 **** 0.06
26603 H 39.18017653174081 123.31225703570684 37.49368473549103 H 0.0 **** 0.06
26604 H 38.54182680574215 124.91048081477263 37.039475793564975 H 0.0 **** 0.06
26605 H 39.91682848174733 124.789094105677 38.16287955454524 H 0.0 **** 0.06
26606 C 23.479465452668258 66.85047771049258 79.13346966955655 C 0.0 **** -0.24
26607 H 22.666919641207805 67.49600503945257 79.46583338248116 H 0.0 **** 0.06
26608 H 23.984842885952077 66.42658133457556 80.00140654642318 H 0.0 **** 0.06
26609 H 24.190155826057918 67.43394094540119 78.5481733837234 H 0.0 **** 0.06
26610 H 23.076349456986513 66.04654823780103 78.5177734912554 H 0.0 **** 0.06
26611 C 121.07700056203495 76.77575328703423 38.231465993622805 C 0.0 **** -0.24
26612 H 122.15801061996947 76.77924520551866 38.08853944680766 H 0.0 **** 0.06
26613 H 120.73416804357575 75.75179966604415 38.37978908336754 H 0.0 **** 0.06
26614 H 120.59328079449793 77.19772575826264 37.351495402174294 H 0.0 **** 0.06
26615 H 120.82501095703626 77.37364333495415 39.10728482353545 H 0.0 **** 0.06
26616 C 52.3416060251045 5.4051898061126735 33.300675240052925 C 0.0 **** -0.24
26617 H 53.026123554226075 4.695598314346341 32.836567993426684 H 0.0 **** 0.06
26618 H 51.323347375135 5.021210249755825 33.23912918038522 H 0.0 **** 0.06
26619 H 52.40201403705379 6.3613837918885 32.7801285408876 H 0.0 **** 0.06
26620 H 52.61665121142801 5.542357089720497 34.34671740122917 H 0.0 **** 0.06
26621 C 60.391550053031196 49.232196333890414 100.76179303497305 C 0.0 **** -0.24
26622 H 59.395694996761875 49.15638092187072 100.32515287668511 H 0.0 **** 0.06
26623 H 60.46872306018797 50.15972940471244 101.33007524888663 H 0.0 **** 0.06
26624 H 61.13734477721667 49.229353068852134 99.96713271496498 H 0.0 **** 0.06
26625 H 60.56368901536342 48.38379381845348 101.4243451148929 H 0.0 **** 0.06
26626 C 94.03725589630811 59.434104215894024 92.7901333985007 C 0.0 **** -0.24
26627 H 94.31651133128867 60.44584136191452 93.08272390862862 H 0.0 **** 0.06
26628 H 93.87121237350723 58.8310686386954 93.68248899589045 H 0.0 **** 0.06
26629 H 94.83854692890816 58.99311905067418 92.19780356603187 H 0.0 **** 0.06
26630 H 93.12275295152813 59.46638781229203 92.19751712345183 H 0.0 **** 0.06
26631 C 34.41362810471247 26.2333249535653 111.82061502586805 C 0.0 **** -0.24
26632 H 33.64912548409296 25.975552457681005 112.55332708778786 H 0.0 **** 0.06
26633 H 34.490981530233 25.43673431049254 111.08115464279462 H 0.0 **** 0.06
26634 H 35.37218791152782 26.35596178841655 112.32403052527366 H 0.0 **** 0.06
26635 H 34.14200683374753 27.165664228802285 111.3252048187523 H 0.0 **** 0.06
26636 C 111.74238147556366 26.71982581968362 67.32242107815301 C 0.0 **** -0.24
26637 H 112.77999588090341 26.797407676791977 66.99546640016435 H 0.0 **** 0.06
26638 H 111.52897061922408 25.691371858259288 67.6118793756503 H 0.0 **** 0.06
26639 H 111.08176633667642 27.012507959194224 66.50564831443897 H 0.0 **** 0.06
26640 H 111.58020188405061 27.38012266785934 68.17508502275906 H 0.0 **** 0.06
26641 C 86.06881217388447 20.035592385973672 94.37830729627436 C 0.0 **** -0.24
26642 H 85.20235082387373 20.67066494125868 94.55933884036581 H 0.0 **** 0.06
26643 H 86.2950367097504 19.46461999676505 95.27909745426183 H 0.0 **** 0.06
26644 H 86.92578583111471 20.65574160279553 94.11688051398093 H 0.0 **** 0.06
26645 H 85.85288652003949 19.350189875032555 93.55802352997364 H 0.0 **** 0.06
26646 C 22.64813582426271 135.8331909072315 26.128758784061944 C 0.0 **** -0.24
26647 H 21.611915730178367 136.17221069638825 26.14904274539694 H 0.0 **** 0.06
26648 H 22.791778266147418 135.06217507245762 26.886182943879106 H 0.0 **** 0.06
26649 H 23.30989102361596 136.67372317204106 26.335406845665204 H 0.0 **** 0.06
26650 H 22.87647328601571 135.4226322876036 25.14571988636544 H 0.0 **** 0.06
26651 C 20.574427940423533 136.1564499145751 51.79132191778882 C 0.0 **** -0.24
26652 H 20.809762328629347 135.1016745897906 51.65146266783336 H 0.0 **** 0.06
26653 H 20.407317706769447 136.35323417367644 52.85061038158784 H 0.0 **** 0.06
26654 H 19.67515076178816 136.40653934603498 51.229423635723776 H 0.0 **** 0.06
26655 H 21.40634935509351 136.7640584001355 51.435260711391834 H 0.0 **** 0.06
26656 C 140.51925741807628 7.842461713210248 116.21723434691815 C 0.0 **** -0.24
26657 H 140.26087303904592 8.78926915930434 116.69251859111283 H 0.0 **** 0.06
26658 H 139.80910737722516 7.6318544787744536 115.41707845939966 H 0.0 **** 0.06
26659 H 140.481937176011 7.04295294362889 116.95738219529126 H 0.0 **** 0.06
26660 H 141.52485366737383 7.906688084411709 115.80225961387619 H 0.0 **** 0.06
26661 C 15.987755382132406 4.8885103022829846 102.66408292569771 C 0.0 **** -0.24
26662 H 16.387310647339376 4.581911835808949 103.63153676586367 H 0.0 **** 0.06
26663 H 14.962529851539273 4.530594012929761 102.56632574765945 H 0.0 **** 0.06
26664 H 16.598384909373266 4.463942279940014 101.8681530248818 H 0.0 **** 0.06
26665 H 16.002020597151557 5.976047136457687 102.59363418074973 H 0.0 **** 0.06
26666 C 122.06967441587003 129.2666773991011 58.43771545481259 C 0.0 **** -0.24
26667 H 121.80099662258314 130.32291155138668 58.46407021333533 H 0.0 **** 0.06
26668 H 122.06248239807255 128.91544792054876 57.40526154286954 H 0.0 **** 0.06
26669 H 121.34894949902443 128.69385236801523 59.021643527227155 H 0.0 **** 0.06
26670 H 123.06600952633087 129.13542789741072 58.8601463054315 H 0.0 **** 0.06
26671 C 81.47551306735316 143.9856148389976 87.61720444124711 C 0.0 **** -0.24
26672 H 82.18396344636209 143.1598906034222 87.67064016990824 H 0.0 **** 0.06
26673 H 81.3546299439294 144.42620439128012 88.60653956530572 H 0.0 **** 0.06
26674 H 80.51298463369453 143.61511743426811 87.26400817814195 H 0.0 **** 0.06
26675 H 81.84955320751766 144.74077293271569 86.92564812587443 H 0.0 **** 0.06
26676 C 32.838292740096364 143.8535686883677 144.25554138813652 C 0.0 **** -0.24
26677 H 33.06638137973923 144.87463733002326 143.95005768937483 H 0.0 **** 0.06
26678 H 31.844381487846817 143.58099557856443 143.89865025471613 H 0.0 **** 0.06
26679 H 32.86678495414853 143.7842317842528 145.3426151901284 H 0.0 **** 0.06
26680 H 33.5766574355753 143.17395343598437 143.82891318474458 H 0.0 **** 0.06
26681 C 57.180298331296655 61.412627153491826 42.46938913930113 C 0.0 **** -0.24
26682 H 56.3383417801698 62.00592620233789 42.823793189710685 H 0.0 **** 0.06
26683 H 58.07913154005266 62.02902266178529 42.45366221462305 H 0.0 **** 0.06
26684 H 56.971403873673594 61.049516369016146 41.46335358427092 H 0.0 **** 0.06
26685 H 57.333000529737475 60.5638153579103 43.13750107688482 H 0.0 **** 0.06
26686 C 10.763797241270652 57.57508145598132 86.43785054986347 C 0.0 **** -0.24
26687 H 10.476235576388376 57.99626592536873 85.47464921223214 H 0.0 **** 0.06
26688 H 10.621631685154568 58.323458105325756 87.21765453395936 H 0.0 **** 0.06
26689 H 11.812044122111672 57.2784535021396 86.40622433517223 H 0.0 **** 0.06
26690 H 10.14509068740972 56.70355009993176 86.65288360305343 H 0.0 **** 0.06
26691 C 139.27838852347332 114.34539938181896 84.63713930502485 C 0.0 **** -0.24
26692 H 138.91005146586014 114.87441356270838 83.7581599502248 H 0.0 **** 0.06
26693 H 139.01885061693514 113.28942718927252 84.56107548098369 H 0.0 **** 0.06
26694 H 138.82182993940268 114.7689034459618 85.53292753707208 H 0.0 **** 0.06
26695 H 140.361290004363 114.45147758710826 84.69726973890555 H 0.0 **** 0.06
26696 C 55.22709082942691 92.81035120568976 97.70098803889687 C 0.0 **** -0.24
26697 H 54.82129171743743 93.32702406282192 96.83060468462998 H 0.0 **** 0.06
26698 H 56.09855443907662 93.35195464513168 98.06942094508975 H 0.0 **** 0.06
26699 H 55.518664569745425 91.79929053156354 97.41864265732096 H 0.0 **** 0.06
26700 H 54.469515468549076 92.76617776409033 98.48252122010183 H 0.0 **** 0.06
26701 C 10.057525537064436 81.02627918204128 115.63948960081542 C 0.0 **** -0.24
26702 H 9.162158864924145 80.97150402885038 116.25846059248657 H 0.0 **** 0.06
26703 H 10.725151601683145 80.20280841257826 115.8926777101389 H 0.0 **** 0.06
26704 H 10.564233645312854 81.97417381828613 115.81801552474225 H 0.0 **** 0.06
26705 H 9.777225450203389 80.9570323596591 114.5885540065121 H 0.0 **** 0.06
26706 C 102.7412792303387 19.768570983760952 81.43597971504907 C 0.0 **** -0.24
26707 H 103.81464111973406 19.62141116638051 81.32240561588773 H 0.0 **** 0.06
26708 H 102.39810748351664 19.26022305868989 82.33669743351692 H 0.0 **** 0.06
26709 H 102.22405857745946 19.359496308247827 80.56766316307942 H 0.0 **** 0.06
26710 H 102.5271332192226 20.83480563082898 81.51621128978718 H 0.0 **** 0.06
26711 C 50.65092221880448 63.117808063953504 15.919737305174664 C 0.0 **** -0.24
26712 H 50.673977508785384 62.22185795367561 16.539993497724964 H 0.0 **** 0.06
26713 H 51.09331743984745 62.89800537545848 14.947569527399907 H 0.0 **** 0.06
26714 H 51.2168864505268 63.91137302747518 16.40567655067278 H 0.0 **** 0.06
26715 H 49.6175708993207 63.439397821315794 15.784334059400322 H 0.0 **** 0.06
26716 C 103.94840518967749 99.32497703960007 23.961779016272942 C 0.0 **** -0.24
26717 H 103.08098028798776 98.7172732622484 24.217213951595 H 0.0 **** 0.06
26718 H 104.50956070901907 99.55663199973824 24.86730338249987 H 0.0 **** 0.06
26719 H 103.61575610891506 100.25111563479831 23.491802592606575 H 0.0 **** 0.06
26720 H 104.58617960925676 98.77534939411984 23.268680042920153 H 0.0 **** 0.06
26721 C 36.401821523471284 9.116213595153368 135.7267454646249 C 0.0 **** -0.24
26722 H 36.05342937673795 9.047806176193916 136.75712850892364 H 0.0 **** 0.06
26723 H 35.83074138817986 9.881443382956803 135.20004935516698 H 0.0 **** 0.06
26724 H 36.26484313975087 8.155186957659595 135.23182770895858 H 0.0 **** 0.06
26725 H 37.4594666406999 9.382216029191113 135.71739309997258 H 0.0 **** 0.06
26726 C 75.90236530443998 24.925033088731027 18.10174154285778 C 0.0 **** -0.24
26727 H 74.99233434916107 25.299924884147117 18.57142414950377 H 0.0 **** 0.06
26728 H 75.68986478940921 24.649367611629373 17.067895299673523 H 0.0 **** 0.06
26729 H 76.25800260902881 24.049742942304988 18.6462001774606 H 0.0 **** 0.06
26730 H 76.66785687687182 25.701200869203944 18.12159491371466 H 0.0 **** 0.06
26731 C 142.6227568744652 60.75054617492654 25.381754609681053 C 0.0 **** -0.24
26732 H 142.49191898034638 60.07134704975667 26.224229472364215 H 0.0 **** 0.06
26733 H 141.69924172957894 60.7963579220181 24.80516556346383 H 0.0 **** 0.06
26734 H 143.4307609255559 60.387512119032266 24.745518267235013 H 0.0 **** 0.06
26735 H 142.87077339064 61.74469148631775 25.752302531083018 H 0.0 **** 0.06
26736 C 53.267749180912574 49.06376177685489 138.0119483828927 C 0.0 **** -0.24
26737 H 53.09324260984815 49.32053013149084 136.96669989513745 H 0.0 **** 0.06
26738 H 53.43298493790033 47.98962277954216 138.0986633013973 H 0.0 **** 0.06
26739 H 52.398788027245615 49.34758160355416 138.60473052610942 H 0.0 **** 0.06
26740 H 54.14663657315697 49.5975136100333 138.37445473707672 H 0.0 **** 0.06
26741 C 101.14812467518031 110.8505297298182 13.797053573952525 C 0.0 **** -0.24
26742 H 100.94176201118547 110.64637742575941 14.847307423693962 H 0.0 **** 0.06
26743 H 100.34901037441537 111.46701177697737 13.383178960181937 H 0.0 **** 0.06
26744 H 101.20301351341038 109.90975447110931 13.248227484973171 H 0.0 **** 0.06
26745 H 102.09732741535383 111.37925122043514 13.709568469618688 H 0.0 **** 0.06
26746 C 32.56493651875691 126.87948950295032 62.40721984923893 C 0.0 **** -0.24
26747 H 33.28454039685977 127.42159325484708 63.02072753217976 H 0.0 **** 0.06
26748 H 32.9715088497355 126.7430473887157 61.405061981690196 H 0.0 **** 0.06
26749 H 31.636735393481572 127.44691166223419 62.348827986640416 H 0.0 **** 0.06
26750 H 32.36759689682901 125.90536527705981 62.85497868314738 H 0.0 **** 0.06
26751 C 104.31911252127284 51.374870207866365 140.41263290468228 C 0.0 **** -0.24
26752 H 103.81069989528905 52.329018545694794 140.27532146444955 H 0.0 **** 0.06
26753 H 103.77864177108977 50.77721733871624 141.1463006013835 H 0.0 **** 0.06
26754 H 105.33536023695531 51.552815303082525 140.7653283131269 H 0.0 **** 0.06
26755 H 104.35323901420254 50.841966792036885 139.46239176234712 H 0.0 **** 0.06
26756 C 24.90733126220718 21.63937769988496 4.031784246320683 C 0.0 **** -0.24
26757 H 24.846318395386476 22.52393487876148 4.664634829767863 H 0.0 **** 0.06
26758 H 25.840640745756474 21.65878987070002 3.4677607220812092 H 0.0 **** 0.06
26759 H 24.064965511055135 21.629430942795437 3.3397568475591015 H 0.0 **** 0.06
26760 H 24.877309524684478 20.744810683155464 4.653682498311298 H 0.0 **** 0.06
26761 C 63.97160040089733 101.54857040229808 86.44604797370235 C 0.0 **** -0.24
26762 H 63.46860378266297 102.36833678878719 85.9329774355621 H 0.0 **** 0.06
26763 H 65.04371057273488 101.74703084312148 86.4831319342891 H 0.0 **** 0.06
26764 H 63.793291743994416 100.61865295478941 85.90649033922772 H 0.0 **** 0.06
26765 H 63.582510213696935 101.46103476106856 87.46038333571487 H 0.0 **** 0.06
26766 C 92.6163974639324 46.80053433628741 13.442710616339362 C 0.0 **** -0.24
26767 H 92.59977867700582 46.38138260959083 12.437199554770572 H 0.0 **** 0.06
26768 H 93.44914297033802 47.49779382648185 13.532343213245362 H 0.0 **** 0.06
26769 H 92.73466194770234 45.996925057196464 14.170031428650404 H 0.0 **** 0.06
26770 H 91.68026026825237 47.32603716468999 13.632986340517093 H 0.0 **** 0.06
26771 C 119.09735017714543 33.3225991042612 105.78808805031974 C 0.0 **** -0.24
26772 H 119.22996511389572 32.59106046293715 106.58562828250587 H 0.0 **** 0.06
26773 H 120.05911064906836 33.77262894803994 105.54336821049077 H 0.0 **** 0.06
26774 H 118.40691542598127 34.09857031360224 106.11969845941525 H 0.0 **** 0.06
26775 H 118.69172135480112 32.82824088286321 104.90613507795467 H 0.0 **** 0.06
26776 C 1.0552884800889615 45.656516185462706 13.780137978447868 C 0.0 **** -0.24
26777 H 1.2406929879019515 44.5845999094513 13.856829651627748 H 0.0 **** 0.06
26778 H 1.8264376801049025 46.11487276352898 13.160436368637505 H 0.0 **** 0.06
26779 H 1.078252570964537 46.10007779431483 14.775448300912501 H 0.0 **** 0.06
26780 H 0.07726008902881176 45.8251934376689 13.328856058714564 H 0.0 **** 0.06
26781 C 20.807582705378323 15.822384796123487 137.10057427800507 C 0.0 **** -0.24
26782 H 19.962556928204094 15.548431352704768 136.4698692827837 H 0.0 **** 0.06
26783 H 20.89607169094225 15.106466662164365 137.91831315039366 H 0.0 **** 0.06
26784 H 20.649334019086012 16.820817983861616 137.50695017971532 H 0.0 **** 0.06
26785 H 21.72190558371406 15.811515881263205 136.50784465328434 H 0.0 **** 0.06
26786 C 113.76811097953019 2.7023270307585676 66.35647312380888 C 0.0 **** -0.24
26787 H 114.03058875261424 2.5011813302447763 67.39552786777142 H 0.0 **** 0.06
26788 H 114.53682891964975 2.2915807840258253 65.70238970564915 H 0.0 **** 0.06
26789 H 113.69627371619846 3.778864820222452 66.2019069996224 H 0.0 **** 0.06
26790 H 112.8094474866078 2.2370189855459444 66.12872853706241 H 0.0 **** 0.06
26791 C 34.72100070391474 13.799181506640835 72.68670770468773 C 0.0 **** -0.24
26792 H 34.332155378660445 12.79094505442616 72.83070243443169 H 0.0 **** 0.06
26793 H 34.51027067683319 14.399919905704223 73.57130711415246 H 0.0 **** 0.06
26794 H 34.24335609840573 14.250566423991664 71.81717324394359 H 0.0 **** 0.06
26795 H 35.79847787879859 13.752959047383818 72.52607348356631 H 0.0 **** 0.06
26796 C 52.16913193922704 14.705407553982525 79.17033902088193 C 0.0 **** -0.24
26797 H 51.99176547842529 13.654589650140338 78.94305124176933 H 0.0 **** 0.06
26798 H 53.20877645269246 14.952395552342807 78.95473029757243 H 0.0 **** 0.06
26799 H 51.963319791114316 14.887693243604161 80.22514430517676 H 0.0 **** 0.06
26800 H 51.514242913122644 15.325380968450588 78.55864531053483 H 0.0 **** 0.06
26801 C 55.35262880215231 69.88855168545231 97.76442786268497 C 0.0 **** -0.24
26802 H 54.86741941398425 70.84605566516667 97.95302230086679 H 0.0 **** 0.06
26803 H 55.91130916993832 69.94293020583127 96.8294641365446 H 0.0 **** 0.06
26804 H 54.597633560680805 69.10650267632465 97.69139787674052 H 0.0 **** 0.06
26805 H 56.03505822906004 69.65955631931205 98.5826112607519 H 0.0 **** 0.06
26806 C 116.53836514902527 59.9336052733353 51.03141375514895 C 0.0 **** -0.24
26807 H 117.18423139801526 60.771614940842255 50.76997453318114 H 0.0 **** 0.06
26808 H 117.15006747245882 59.08351164232516 51.33277062482392 H 0.0 **** 0.06
26809 H 115.9340860245804 59.65772696429602 50.166612714308314 H 0.0 **** 0.06
26810 H 115.88363954584152 60.221059035839176 51.853712720123895 H 0.0 **** 0.06
26811 C 40.24488914664225 28.940926073335277 8.27122510815704 C 0.0 **** -0.24
26812 H 40.02637989212417 28.4328531144452 7.331424323644995 H 0.0 **** 0.06
26813 H 40.88985528958375 28.310502758280485 8.883073128768814 H 0.0 **** 0.06
26814 H 39.31392629506959 29.13402615383061 8.804248019404639 H 0.0 **** 0.06
26815 H 40.74860091252198 29.884362331125665 8.06491877109923 H 0.0 **** 0.06
26816 C 123.03454555798834 28.91814989220026 53.669285887287174 C 0.0 **** -0.24
26817 H 123.56236534334253 29.746780588292978 54.14132331955716 H 0.0 **** 0.06
26818 H 122.0355978285567 29.243199101348324 53.377360603604416 H 0.0 **** 0.06
26819 H 122.9554132233465 28.089512171502548 54.37371724844661 H 0.0 **** 0.06
26820 H 123.58373062219508 28.592701175033824 52.786660413877144 H 0.0 **** 0.06
26821 C 18.653881830284057 128.87100716904777 35.79625400082506 C 0.0 **** -0.24
26822 H 19.159183732546985 127.99069743920589 36.19345629315046 H 0.0 **** 0.06
26823 H 17.574602714339314 128.7348003317537 35.870282492455416 H 0.0 **** 0.06
26824 H 18.931775550069332 129.00803486672388 34.750490426484774 H 0.0 **** 0.06
26825 H 18.94981805554921 129.7487126974631 36.36911398854323 H 0.0 **** 0.06
26826 C 34.640872423267794 18.555997598909585 75.47240221551465 C 0.0 **** -0.24
26827 H 33.63459843326868 18.351429385309757 75.10841135295541 H 0.0 **** 0.06
26828 H 35.37018482527773 18.116388026904517 74.79111681765082 H 0.0 **** 0.06
26829 H 34.76257098793957 18.122498071146097 76.46527709887954 H 0.0 **** 0.06
26830 H 34.79613544658501 19.63367491227794 75.52480359257257 H 0.0 **** 0.06
26831 C 22.24263552510132 86.7526503759331 1.4691199978482814 C 0.0 **** -0.24
26832 H 21.598722040335247 85.87316250820145 1.5091759846642674 H 0.0 **** 0.06
26833 H 21.86512251065622 87.51043078886241 2.15500163915209 H 0.0 **** 0.06
26834 H 22.2506287180573 87.15097576577716 0.4543895398884956 H 0.0 **** 0.06
26835 H 23.25618361724338 86.47287377079194 1.7580131482903596 H 0.0 **** 0.06
26836 C 65.39657149361136 69.45876692885503 132.66614209323996 C 0.0 **** -0.24
26837 H 64.37204886389173 69.36287893445376 132.30680274918677 H 0.0 **** 0.06
26838 H 66.01547665856634 69.90154551107105 131.8855061747537 H 0.0 **** 0.06
26839 H 65.78507425941217 68.47259920205977 132.9220869112537 H 0.0 **** 0.06
26840 H 65.41397639229677 70.09678640842395 133.54959446831418 H 0.0 **** 0.06
26841 C 115.30625069997815 10.125456702260209 51.832128617756666 C 0.0 **** -0.24
26842 H 115.75959473452481 10.92253287347836 51.2431051489298 H 0.0 **** 0.06
26843 H 115.87765218953002 9.20660681284025 51.69814301184023 H 0.0 **** 0.06
26844 H 114.27993355689794 9.966938227365347 51.50104719281299 H 0.0 **** 0.06
26845 H 115.30937750512571 10.405763857519844 52.88545668504155 H 0.0 **** 0.06
26846 C 71.92340036115573 127.52202210652834 15.35402661044398 C 0.0 **** -0.24
26847 H 72.23505021767645 127.83342287507047 16.351257198077036 H 0.0 **** 0.06
26848 H 72.66351416057036 127.84826015767337 14.623603323896162 H 0.0 **** 0.06
26849 H 70.95774072614323 127.96857239278215 15.118917768902264 H 0.0 **** 0.06
26850 H 71.83785870943771 126.43490648588377 15.324357884979406 H 0.0 **** 0.06
26851 C 110.95202140377675 51.53840441304243 20.819791296995476 C 0.0 **** -0.24
26852 H 110.4216591707196 50.783113648963365 20.23994937555227 H 0.0 **** 0.06
26853 H 111.92741641120573 51.15188182370758 21.11375341158231 H 0.0 **** 0.06
26854 H 110.37324879539561 51.78370980752396 21.7103503539971 H 0.0 **** 0.06
26855 H 111.08300530826283 52.435098275140376 20.213941284015384 H 0.0 **** 0.06
26856 C 62.22191216478387 51.67234463538699 104.31676578700295 C 0.0 **** -0.24
26857 H 61.97850088661832 51.89987459880592 103.27852400422297 H 0.0 **** 0.06
26858 H 62.59128647093419 50.648691816412565 104.38576192127266 H 0.0 **** 0.06
26859 H 61.32865874228864 51.77879051456728 104.9314693337107 H 0.0 **** 0.06
26860 H 62.98964704752976 52.36072565687067 104.66883336247011 H 0.0 **** 0.06
26861 C 13.000232622723317 47.45307226422628 123.14876705026865 C 0.0 **** -0.24
26862 H 12.332366676273537 47.22755200478525 122.31723918117132 H 0.0 **** 0.06
26863 H 13.148384620053704 48.53096570676418 123.21333951335839 H 0.0 **** 0.06
26864 H 13.959903787431202 46.96224054627825 122.98759519738837 H 0.0 **** 0.06
26865 H 12.558593432047196 47.090281738152 124.07767599005018 H 0.0 **** 0.06
26866 C 28.894345547016975 7.734529048542367 4.118986109901925 C 0.0 **** -0.24
26867 H 29.0928811097465 7.132880172534257 5.006688320105837 H 0.0 **** 0.06
26868 H 27.994738906769804 7.366888490446055 3.625737497416395 H 0.0 **** 0.06
26869 H 29.740191241776856 7.6615621511248975 3.435542784540104 H 0.0 **** 0.06
26870 H 28.751080793203016 8.77484388790748 4.41020101195096 H 0.0 **** 0.06
26871 C 2.053030647482643 85.41272239165309 25.856815025677683 C 0.0 **** -0.24
26872 H 2.6346227247091463 86.33424026187299 25.816585571858255 H 0.0 **** 0.06
26873 H 2.473174874380618 84.68935700953364 25.157542348000938 H 0.0 **** 0.06
26874 H 1.0194125290846046 85.62366670849534 25.585052415110788 H 0.0 **** 0.06
26875 H 2.0878801812876873 85.00566249451128 26.86705787785241 H 0.0 **** 0.06
26876 C 47.63559132747139 91.7896931392349 84.35371785256834 C 0.0 **** -0.24
26877 H 48.105743886548154 91.16202055181628 85.11085495908857 H 0.0 **** 0.06
26878 H 47.01661029831715 92.54361713198135 84.84116943047471 H 0.0 **** 0.06
26879 H 47.01355841071066 91.17288687307251 83.70555741716026 H 0.0 **** 0.06
26880 H 48.405404066996084 92.28052949427021 83.75896926856225 H 0.0 **** 0.06
26881 C 111.59582988627602 20.1716927760773 60.57156718901574 C 0.0 **** -0.24
26882 H 112.34182057208676 19.59023223891522 61.11521553708468 H 0.0 **** 0.06
26883 H 111.57038780304674 19.847327453718556 59.53050196375153 H 0.0 **** 0.06
26884 H 111.85797174604443 21.228947138192837 60.61664239893881 H 0.0 **** 0.06
26885 H 110.61607970916208 20.019955248002155 61.02441838461948 H 0.0 **** 0.06
26886 C 70.81672996477742 117.84141182872109 124.3743285372661 C 0.0 **** -0.24
26887 H 70.45832763826245 116.85657815653902 124.07449139240163 H 0.0 **** 0.06
26888 H 71.61545472243878 117.72936685322556 125.10835417312117 H 0.0 **** 0.06
26889 H 69.99591220710406 118.40799867796876 124.81402212029587 H 0.0 **** 0.06
26890 H 71.1978599781385 118.37113861983913 123.50157696168642 H 0.0 **** 0.06
26891 C 142.02693823703473 63.04146591170499 90.56387908329698 C 0.0 **** -0.24
26892 H 141.21777390208024 63.22321306454782 91.27085427779858 H 0.0 **** 0.06
26893 H 142.95979959684482 63.43164593022834 90.9711801321665 H 0.0 **** 0.06
26894 H 141.80381364355236 63.540296279658094 89.62108825356263 H 0.0 **** 0.06
26895 H 142.12454731454682 61.969106036699145 90.39274845481599 H 0.0 **** 0.06
26896 C 90.03099371178732 0.47687686460633927 53.421261425410876 C 0.0 **** -0.24
26897 H 89.2370689733188 1.2111543429726623 53.556324278246734 H 0.0 **** 0.06
26898 H 90.91873341046278 0.9700109128232839 53.02600086865138 H 0.0 **** 0.06
26899 H 89.7000156936152 -0.2918626467449599 52.722343654497564 H 0.0 **** 0.06
26900 H 90.2675245162039 0.01711762662935712 54.381023653304766 H 0.0 **** 0.06
26901 C 5.805704439962 128.9656985718578 75.59503842089568 C 0.0 **** -0.24
26902 H 5.840532474939522 129.63139137709325 76.45776782105705 H 0.0 **** 0.06
26903 H 6.17828706931644 129.491327294598 74.71522618335818 H 0.0 **** 0.06
26904 H 4.777150056180432 128.65003039598926 75.42189872426003 H 0.0 **** 0.06
26905 H 6.428305942876392 128.09161340030207 75.7859058545424 H 0.0 **** 0.06
26906 C 84.93166074172709 136.8465781468558 5.090534448296978 C 0.0 **** -0.24
26907 H 85.5472416802021 135.96001114413266 4.939088271574917 H 0.0 **** 0.06
26908 H 84.55417849882745 137.1951523851659 4.128621716165384 H 0.0 **** 0.06
26909 H 85.53225984517628 137.63135777418842 5.5514700096396155 H 0.0 **** 0.06
26910 H 84.09394344625633 136.59998180817715 5.742909247108429 H 0.0 **** 0.06
26911 C 100.89097949503258 7.891304887425889 92.1358581338801 C 0.0 **** -0.24
26912 H 100.93419958352194 6.806924261471039 92.23543503541578 H 0.0 **** 0.06
26913 H 100.39353635901267 8.316449832422165 93.00794988738495 H 0.0 **** 0.06
26914 H 100.33348657713634 8.151449032848774 91.23583892062067 H 0.0 **** 0.06
26915 H 101.90343137273527 8.289739357313607 92.0640451636955 H 0.0 **** 0.06
26916 C 51.18021075924082 140.1372330843456 125.92725493147094 C 0.0 **** -0.24
26917 H 51.2229781455338 139.2177266740738 126.51203340260822 H 0.0 **** 0.06
26918 H 51.08415944456084 140.9902787911863 126.59945065604481 H 0.0 **** 0.06
26919 H 50.31990288513458 140.10203396223875 125.25921057643126 H 0.0 **** 0.06
26920 H 52.092085136049775 140.23725679910837 125.3401619314809 H 0.0 **** 0.06
26921 C 99.64909725880108 129.18305174554087 57.48219510581551 C 0.0 **** -0.24
26922 H 99.53580415127902 128.49099504926352 56.64892863561599 H 0.0 **** 0.06
26923 H 99.86792484753522 130.17994645913643 57.09968718664109 H 0.0 **** 0.06
26924 H 100.4670707248759 128.85128128455523 58.12176423479491 H 0.0 **** 0.06
26925 H 98.72500263530424 129.21036671550777 58.05962901262711 H 0.0 **** 0.06
26926 C 81.4096127599317 130.99559406083807 142.5173982052576 C 0.0 **** -0.24
26927 H 81.34825003749367 129.919346186208 142.360188257284 H 0.0 **** 0.06
26928 H 82.4564156949519 131.29538932636333 142.57701665534773 H 0.0 **** 0.06
26929 H 80.9037829426216 131.25547186729537 143.44755821283732 H 0.0 **** 0.06
26930 H 80.93003897791733 131.51238358418252 141.68622706518173 H 0.0 **** 0.06
26931 C 59.43937203100137 135.4908764247211 10.364910881899362 C 0.0 **** -0.24
26932 H 58.46066676699438 135.14810167446115 10.699897971460501 H 0.0 **** 0.06
26933 H 59.610112393471525 136.50684644726343 10.723130935459352 H 0.0 **** 0.06
26934 H 59.47657483324805 135.47844988113224 9.275593466696762 H 0.0 **** 0.06
26935 H 60.211521222474275 134.8306785120798 10.761887338347805 H 0.0 **** 0.06
26936 C 142.85200087414665 12.752796637662527 111.91106560343741 C 0.0 **** -0.24
26937 H 142.2456721771454 12.206309952283846 112.63377628673197 H 0.0 **** 0.06
26938 H 143.29474398862592 13.624191525638821 112.39376674396885 H 0.0 **** 0.06
26939 H 142.22279357645883 13.077359006434563 111.08114607419463 H 0.0 **** 0.06
26940 H 143.64238738852973 12.103649483213758 111.53524916830696 H 0.0 **** 0.06
26941 C 18.70679077165363 54.813209234505166 86.15629680822195 C 0.0 **** -0.24
26942 H 18.93941197157355 54.41240878481571 87.14273294935094 H 0.0 **** 0.06
26943 H 18.990197664411113 54.08696498081986 85.39359386925224 H 0.0 **** 0.06
26944 H 19.261349148307573 55.738457914287096 86.00009892033796 H 0.0 **** 0.06
26945 H 17.637093461090927 55.01378095588257 86.08791851600134 H 0.0 **** 0.06
26946 C 140.0336429607744 32.21491748699688 68.62403207557317 C 0.0 **** -0.24
26947 H 139.39111727174202 32.79068976514094 69.28988483862601 H 0.0 **** 0.06
26948 H 139.75624519755848 31.161783797482855 68.67246575994943 H 0.0 **** 0.06
26949 H 141.07286026465027 32.33191096852221 68.93152487518626 H 0.0 **** 0.06
26950 H 139.91397426186057 32.57614922982697 67.60191613828749 H 0.0 **** 0.06
26951 C 78.61400099812565 138.3489809620306 20.823594846337784 C 0.0 **** -0.24
26952 H 77.56368777170084 138.0645477313206 20.879323826075222 H 0.0 **** 0.06
26953 H 78.71435713915997 139.41171848221535 21.04331851292011 H 0.0 **** 0.06
26954 H 78.99288762722823 138.14640047498642 19.822082018665327 H 0.0 **** 0.06
26955 H 79.18551836726553 137.77170177218107 21.551198159988758 H 0.0 **** 0.06
26956 C 83.94083858925245 60.428549529484684 76.8484928242166 C 0.0 **** -0.24
26957 H 83.35581964096001 59.67595185468046 76.3205463924682 H 0.0 **** 0.06
26958 H 84.50271879488005 61.0238402587797 76.12799610227333 H 0.0 **** 0.06
26959 H 84.63434232867053 59.93698699954622 77.53166688085057 H 0.0 **** 0.06
26960 H 83.27268212045935 61.077939713383216 77.41468470459196 H 0.0 **** 0.06
26961 C 20.659883975905387 103.91374833468747 3.7981676523085035 C 0.0 **** -0.24
26962 H 20.608473829587723 102.8689102140275 3.49382714451367 H 0.0 **** 0.06
26963 H 21.17544352946541 104.49099351491219 3.029927915462462 H 0.0 **** 0.06
26964 H 21.205363689152335 103.99213911994846 4.739052714905544 H 0.0 **** 0.06
26965 H 19.651005853329167 104.30502741362722 3.9295126797911877 H 0.0 **** 0.06
26966 C 40.30850784477325 128.5370061353307 80.54802793546645 C 0.0 **** -0.24
26967 H 40.14283984946776 129.1232200256335 79.64398794811069 H 0.0 **** 0.06
26968 H 40.843577605578915 129.14194316735288 81.28010268455812 H 0.0 **** 0.06
26969 H 40.90018077462132 127.65377741141708 80.30375117090301 H 0.0 **** 0.06
26970 H 39.34842984394522 128.2281378156392 80.96142180006412 H 0.0 **** 0.06
26971 C 53.26336163577962 73.22220046674168 15.47372721569456 C 0.0 **** -0.24
26972 H 52.44342048052516 72.88527777896611 16.10869929417406 H 0.0 **** 0.06
26973 H 54.19427968434158 72.76297039770805 15.809840783600087 H 0.0 **** 0.06
26974 H 53.349419007962425 74.30606252521149 15.536599916872603 H 0.0 **** 0.06
26975 H 53.06641251708852 72.93146689941919 14.441970499066905 H 0.0 **** 0.06
26976 C 138.3004073127287 108.99189420481974 75.04683145931998 C 0.0 **** -0.24
26977 H 138.51429201846298 109.78587699838795 74.33102871328865 H 0.0 **** 0.06
26978 H 137.60829041239742 109.36145103376703 75.80376465468936 H 0.0 **** 0.06
26979 H 139.22773330705928 108.67541969042514 75.52494891757809 H 0.0 **** 0.06
26980 H 137.8529012779094 108.14557394404386 74.52587344438734 H 0.0 **** 0.06
26981 C 11.685221543675652 121.78555203202957 99.36759550511104 C 0.0 **** -0.24
26982 H 10.788190977304566 122.25103615033275 99.77429629897622 H 0.0 **** 0.06
26983 H 12.333942351126325 122.55483344689877 98.94641573455988 H 0.0 **** 0.06
26984 H 11.406201187513545 121.07793697042224 98.5876670419913 H 0.0 **** 0.06
26985 H 12.214194038018945 121.25979027237484 100.16261473573377 H 0.0 **** 0.06
26986 C 131.62520362099391 68.28685880014277 107.29897450493267 C 0.0 **** -0.24
26987 H 130.95573658049167 68.52492335916565 108.12632696872375 H 0.0 **** 0.06
26988 H 131.61568506855335 69.10406005243495 106.5777253058897 H 0.0 **** 0.06
26989 H 131.2905808943265 67.36939574515435 106.81418991644698 H 0.0 **** 0.06
26990 H 132.63712148996635 68.1486532382095 107.67906307516431 H 0.0 **** 0.06
26991 C 85.56089738516789 58.60464355339538 17.869289184515985 C 0.0 **** -0.24
26992 H 85.38266064387102 57.55943070850691 18.12133809782975 H 0.0 **** 0.06
26993 H 86.18963754066135 59.06053277408303 18.634162857213738 H 0.0 **** 0.06
26994 H 84.6101150567655 59.13342542823405 17.8170253174964 H 0.0 **** 0.06
26995 H 86.06336988957418 58.66403145839365 16.90266647926211 H 0.0 **** 0.06
26996 C 80.99517122042357 35.91262528261669 137.8019230239464 C 0.0 **** -0.24
26997 H 80.98754706191667 36.85111907930522 138.35606754803885 H 0.0 **** 0.06
26998 H 82.00747488487727 35.50669829139716 137.789532121664 H 0.0 **** 0.06
26999 H 80.66330642117154 36.092166351222176 136.78018843127094 H 0.0 **** 0.06
27000 H 80.32419329543407 35.20168356893194 138.28302941251442 H 0.0 **** 0.06
27001 C 64.36548896792763 116.95336234208843 103.25289294826176 C 0.0 **** -0.24
27002 H 63.68171419584435 116.19023496112648 103.6261041562496 H 0.0 **** 0.06
27003 H 65.25534402078861 116.98154270300357 103.88137184814065 H 0.0 **** 0.06
27004 H 63.87336751344624 117.92519307942784 103.2747869068365 H 0.0 **** 0.06
27005 H 64.65116811572034 116.71344299046508 102.22802266956998 H 0.0 **** 0.06
27006 C 132.26955910656372 51.65090158672328 135.09857533567504 C 0.0 **** -0.24
27007 H 131.46798944328313 51.83164361102129 134.3814021670033 H 0.0 **** 0.06
27008 H 131.8998654204536 51.016265081038824 135.90364176599294 H 0.0 **** 0.06
27009 H 132.60745048134473 52.6017822559171 135.51078799351424 H 0.0 **** 0.06
27010 H 133.10071493838214 51.15632400841136 134.59665615311593 H 0.0 **** 0.06
27011 C 45.5630508244389 135.40493784749117 101.21181047093967 C 0.0 **** -0.24
27012 H 45.15167515020255 136.39824404092474 101.03191671463293 H 0.0 **** 0.06
27013 H 45.74914755705828 135.27756217528645 102.2789099996827 H 0.0 **** 0.06
27014 H 46.49901717284041 135.29519938599617 100.66407936867347 H 0.0 **** 0.06
27015 H 44.852533950967 134.6516517749065 100.8735713548553 H 0.0 **** 0.06
27016 C 15.991117623476697 41.085209122076776 53.667893245928866 C 0.0 **** -0.24
27017 H 15.708842404182256 40.03193842604705 53.65796933812409 H 0.0 **** 0.06
27018 H 17.06967688835376 41.17087144137872 53.796585653497374 H 0.0 **** 0.06
27019 H 15.485785466917434 41.58776889835052 54.49282111773452 H 0.0 **** 0.06
27020 H 15.698180611792395 41.54763685537283 52.72567704706138 H 0.0 **** 0.06
27021 C 95.47496004799613 87.89968340502855 37.01344277832857 C 0.0 **** -0.24
27022 H 94.81351922334508 87.60081284064854 37.82790849798458 H 0.0 **** 0.06
27023 H 94.88275107798665 88.09475614111051 36.11872991312288 H 0.0 **** 0.06
27024 H 96.18640857483891 87.09965368461202 36.81240976657566 H 0.0 **** 0.06
27025 H 96.01405416068965 88.80247841149365 37.29792923581357 H 0.0 **** 0.06
27026 C 2.0902087407135355 33.92063918633329 140.64728666600558 C 0.0 **** -0.24
27027 H 2.4795264477462524 32.97761599448705 140.26257909889895 H 0.0 **** 0.06
27028 H 1.0003195885987566 33.889989707403316 140.64687151533852 H 0.0 **** 0.06
27029 H 2.4319046998224394 34.73888193793027 140.01358361513022 H 0.0 **** 0.06
27030 H 2.449329986114776 34.07383623494027 141.66513562689278 H 0.0 **** 0.06
27031 C 144.92858926138368 48.791232728929444 4.547025271903891 C 0.0 **** -0.24
27032 H 145.00331035099546 49.188265022154994 3.5340513990309717 H 0.0 **** 0.06
27033 H 143.87889015141374 48.733543239147394 4.836729677095093 H 0.0 **** 0.06
27034 H 145.46051737800695 49.44734641309849 5.234432803951563 H 0.0 **** 0.06
27035 H 145.36927757228582 47.794786133381365 4.579504405172315 H 0.0 **** 0.06
27036 C 11.44796245194317 113.90817991086556 108.888512175198 C 0.0 **** -0.24
27037 H 10.54282103071531 114.51437879200171 108.86951802999283 H 0.0 **** 0.06
27038 H 11.356773849878046 113.1431028544747 109.65990873964711 H 0.0 **** 0.06
27039 H 12.305926958263285 114.5431770995059 109.10471875224005 H 0.0 **** 0.06
27040 H 11.584974786518906 113.43061316480737 107.91743875112252 H 0.0 **** 0.06
27041 C 126.63425296131012 138.98368149520178 121.1962465726336 C 0.0 **** -0.24
27042 H 125.97925578665235 139.2499119260106 120.36625320801248 H 0.0 **** 0.06
27043 H 127.28531200942587 138.16267850485886 120.89669176516084 H 0.0 **** 0.06
27044 H 126.0309485255421 138.67712018767898 122.05091249120663 H 0.0 **** 0.06
27045 H 127.24054185579453 139.84721921244045 121.47161237981804 H 0.0 **** 0.06
27046 C 76.21019087254342 52.74147298313545 28.436003515810256 C 0.0 **** -0.24
27047 H 76.06706251235019 51.76715616661923 28.903889117119896 H 0.0 **** 0.06
27048 H 76.42003740989688 53.485656978909844 29.2045817665543 H 0.0 **** 0.06
27049 H 75.3061135297494 53.02122794488713 27.895562771373818 H 0.0 **** 0.06
27050 H 77.04852066181604 52.690049812167715 27.740882848912662 H 0.0 **** 0.06
27051 C 39.4181232760142 9.766351625376586 43.52421959823408 C 0.0 **** -0.24
27052 H 39.87226370010876 9.166053246746173 42.73601834361685 H 0.0 **** 0.06
27053 H 38.33213837827592 9.711482544733798 43.44190235790336 H 0.0 **** 0.06
27054 H 39.73822753150557 10.802974817670332 43.421596517602964 H 0.0 **** 0.06
27055 H 39.7287913163456 9.384578814728599 44.49649515772644 H 0.0 **** 0.06
27056 C 14.251966425269416 40.5012372579302 122.81260832042534 C 0.0 **** -0.24
27057 H 13.538186296302115 41.31488980181793 122.68831305936561 H 0.0 **** 0.06
27058 H 13.714444611610588 39.55760680108897 122.90769128722877 H 0.0 **** 0.06
27059 H 14.84619913835553 40.67262832161169 123.71007279040637 H 0.0 **** 0.06
27060 H 14.910274012048774 40.45935483005516 121.94385982054035 H 0.0 **** 0.06
27061 C 89.17113727403911 42.95092827446874 123.30558753307005 C 0.0 **** -0.24
27062 H 89.62946152534188 43.79426995909817 122.78957149037518 H 0.0 **** 0.06
27063 H 88.60511165275756 43.31397327859989 124.16299886037447 H 0.0 **** 0.06
27064 H 89.94816502425206 42.26645599961002 123.64592189329883 H 0.0 **** 0.06
27065 H 88.50049289077953 42.4284510210027 122.62214140984291 H 0.0 **** 0.06
27066 C 58.77397077366595 84.93685379057504 57.1221580294811 C 0.0 **** -0.24
27067 H 57.919536740765196 84.78872255314354 57.783173576207446 H 0.0 **** 0.06
27068 H 59.5805142993174 85.41830920718847 57.674676895256496 H 0.0 **** 0.06
27069 H 58.479126801464005 85.56791857613715 56.284582299153456 H 0.0 **** 0.06
27070 H 59.11431980225208 83.9710556085273 56.74802258927184 H 0.0 **** 0.06
27071 C 140.4790206346201 4.468483930724673 124.62827580655245 C 0.0 **** -0.24
27072 H 140.69337733451158 4.582169836129644 123.56515038567507 H 0.0 **** 0.06
27073 H 140.79540620367231 5.366606158167215 125.1600178422816 H 0.0 **** 0.06
27074 H 141.0204106251345 3.6059163695109895 125.01728736470973 H 0.0 **** 0.06
27075 H 139.40842945838813 4.319114470384871 124.76986751737445 H 0.0 **** 0.06
27076 C 21.813748654616745 92.9273418152554 24.95955169186135 C 0.0 **** -0.24
27077 H 22.888776098800406 92.96824785358416 24.78635944617497 H 0.0 **** 0.06
27078 H 21.458766943636647 93.90978501011315 25.270605134201617 H 0.0 **** 0.06
27079 H 21.59954754269154 92.19901285923524 25.740996292445686 H 0.0 **** 0.06
27080 H 21.309479732663704 92.63225217003921 24.03901604323505 H 0.0 **** 0.06
27081 C 57.19991182619282 73.77469508722642 49.389689976814225 C 0.0 **** -0.24
27082 H 58.03891792425736 73.92669364738515 48.71186475541981 H 0.0 **** 0.06
27083 H 57.536290208206594 73.21914478395057 50.265728440764576 H 0.0 **** 0.06
27084 H 56.41899029129297 73.2107541792352 48.87926062978727 H 0.0 **** 0.06
27085 H 56.80436160660105 74.74133557150685 49.7022089565271 H 0.0 **** 0.06
27086 C 81.5249684405082 135.6522662627924 21.944760977165252 C 0.0 **** -0.24
27087 H 81.86242054395203 136.68339345423786 22.052838351649584 H 0.0 **** 0.06
27088 H 81.49690606968336 135.1747418512805 22.924196445458207 H 0.0 **** 0.06
27089 H 82.21310126930457 135.11020716035674 21.296130084661243 H 0.0 **** 0.06
27090 H 80.52683128216071 135.64191900866504 21.50544207255379 H 0.0 **** 0.06
27091 C 68.23857019719566 55.429950960455216 108.48173251232488 C 0.0 **** -0.24
27092 H 68.41004302664146 55.33101931934729 107.41078134197157 H 0.0 **** 0.06
27093 H 67.50709144349258 56.218192191817735 108.66122767212796 H 0.0 **** 0.06
27094 H 69.17526145386239 55.68301290372645 108.9782393424042 H 0.0 **** 0.06
27095 H 67.86129723808148 54.486853225569746 108.87774349023617 H 0.0 **** 0.06
27096 C 50.1453333959888 19.0042879383314 115.33175438843934 C 0.0 **** -0.24
27097 H 50.40646389179314 19.345042636425717 114.32928142289062 H 0.0 **** 0.06
27098 H 49.38871991664914 19.66559291621445 115.75424778919286 H 0.0 **** 0.06
27099 H 51.03424810823195 19.018255661239664 115.96246623714545 H 0.0 **** 0.06
27100 H 49.75293941168256 17.988958169458954 115.27916829295988 H 0.0 **** 0.06
27101 C 116.334362350233 51.65772112733609 86.21294449463544 C 0.0 **** -0.24
27102 H 115.54415392265093 51.53635514940126 86.95376757160113 H 0.0 **** 0.06
27103 H 117.14607250171986 50.96322964794828 86.4293379043431 H 0.0 **** 0.06
27104 H 116.7108632708032 52.68036110524807 86.24805088035534 H 0.0 **** 0.06
27105 H 115.93457813297749 51.45235883012381 85.21972205230125 H 0.0 **** 0.06
27106 C 3.6828690224018317 90.74592341208455 62.11894349625071 C 0.0 **** -0.24
27107 H 3.162029453765342 91.36914500173748 61.3914224119665 H 0.0 **** 0.06
27108 H 3.471214554692125 89.69578367121096 61.91509587448273 H 0.0 **** 0.06
27109 H 3.341250974628082 90.99786547201177 63.12331605709231 H 0.0 **** 0.06
27110 H 4.756477836847665 90.92220086822641 62.04570886769635 H 0.0 **** 0.06
27111 C 87.000283101227 92.53197941440575 96.65805823071685 C 0.0 **** -0.24
27112 H 86.72599683329649 93.39896278270177 96.05808762778202 H 0.0 **** 0.06
27113 H 86.89367310193992 91.62749782775339 96.0594596594766 H 0.0 **** 0.06
27114 H 86.34680028269362 92.47130932441544 97.52872537272299 H 0.0 **** 0.06
27115 H 88.03506285948241 92.63042603651581 96.987287700401 H 0.0 **** 0.06
27116 C 95.19885597950099 88.9526756136743 6.435274046834479 C 0.0 **** -0.24
27117 H 96.09539664493349 88.3555623502775 6.265947375647727 H 0.0 **** 0.06
27118 H 94.8719981832435 88.83160635532298 7.46824797233495 H 0.0 **** 0.06
27119 H 94.4090433999406 88.61951849517231 5.761999719608809 H 0.0 **** 0.06
27120 H 95.41973903770895 90.0028717740216 6.2445475548527725 H 0.0 **** 0.06
27121 C 137.56851507527492 80.15189286979128 110.36246925112596 C 0.0 **** -0.24
27122 H 137.3978756649917 80.35404162313705 109.30481855659502 H 0.0 **** 0.06
27123 H 138.22183751321555 80.92024505618221 110.77841960662124 H 0.0 **** 0.06
27124 H 138.03823698053463 79.17537174692924 110.47455701887105 H 0.0 **** 0.06
27125 H 136.61520736711824 80.15968783165638 110.89226979055093 H 0.0 **** 0.06
27126 C 29.181926725174634 75.55882570108628 7.603168161331954 C 0.0 **** -0.24
27127 H 30.02197774817401 76.2385112025561 7.7461254764568075 H 0.0 **** 0.06
27128 H 28.75531403285197 75.71453051480051 6.612011492899558 H 0.0 **** 0.06
27129 H 28.422073482888862 75.75539122832866 8.360516169274351 H 0.0 **** 0.06
27130 H 29.52654098321929 74.52910810116269 7.693154457347848 H 0.0 **** 0.06
27131 C 61.34807242358295 80.149309532593 66.89844965383813 C 0.0 **** -0.24
27132 H 61.88472010970935 79.45972201485554 66.24615274862285 H 0.0 **** 0.06
27133 H 62.03203552494995 80.54445640304989 67.64958634270894 H 0.0 **** 0.06
27134 H 60.531436800419726 79.62226630394333 67.39078850591511 H 0.0 **** 0.06
27135 H 60.945659619545324 80.97073224363693 66.30491397787964 H 0.0 **** 0.06
27136 C 130.46320521808414 81.26758779872631 49.50943835791895 C 0.0 **** -0.24
27137 H 129.4085888488571 81.34080347709167 49.24516265959542 H 0.0 **** 0.06
27138 H 130.82448137185432 82.24347819519508 49.835098315043666 H 0.0 **** 0.06
27139 H 131.03383871026833 80.93992333362229 48.64083299047516 H 0.0 **** 0.06
27140 H 130.58535020185053 80.54583587731557 50.31742640793482 H 0.0 **** 0.06
27141 C 15.761430401768536 18.669178851735666 56.06675656323175 C 0.0 **** -0.24
27142 H 16.720078775146305 18.312931178014168 55.69075290304906 H 0.0 **** 0.06
27143 H 15.855600908440522 19.711958415939478 56.37042350030842 H 0.0 **** 0.06
27144 H 15.461016208469289 18.066254160054285 56.92457594479232 H 0.0 **** 0.06
27145 H 15.00943963364918 18.584342196912445 55.28183710689076 H 0.0 **** 0.06
27146 C 67.55828863991518 31.47121428583978 140.25490205084586 C 0.0 **** -0.24
27147 H 66.97014469388185 31.384736721423224 139.34069787657228 H 0.0 **** 0.06
27148 H 66.8885144803935 31.572078038071567 141.10882884455262 H 0.0 **** 0.06
27149 H 68.20103569840434 32.34907308323997 140.19070674431998 H 0.0 **** 0.06
27150 H 68.17195867918394 30.57852776191514 140.3768149699218 H 0.0 **** 0.06
27151 C 44.2023765807383 108.34605592769505 144.75524686851898 C 0.0 **** -0.24
27152 H 43.70962210395207 108.27447981798433 145.72545603775234 H 0.0 **** 0.06
27153 H 45.186450807325386 107.88025689184572 144.8128237447998 H 0.0 **** 0.06
27154 H 44.310830571839844 109.39527246813269 144.4801172831413 H 0.0 **** 0.06
27155 H 43.6001785442475 107.83399851164195 144.00403140637303 H 0.0 **** 0.06
27156 C 77.90786299402572 71.33798404548222 48.33604372308804 C 0.0 **** -0.24
27157 H 78.90858523825531 70.92952850396463 48.19393118566842 H 0.0 **** 0.06
27158 H 77.83780221030526 72.30843725302762 47.84396853922027 H 0.0 **** 0.06
27159 H 77.71234089702199 71.45717118571801 49.4018914830844 H 0.0 **** 0.06
27160 H 77.17297427205128 70.65780229141066 47.90534864680666 H 0.0 **** 0.06
27161 C 103.92560538484815 137.31627985980546 118.92054947252348 C 0.0 **** -0.24
27162 H 104.55300105076311 137.15057397203785 119.7970300404611 H 0.0 **** 0.06
27163 H 102.90321727883804 137.01027453086633 119.14334358262863 H 0.0 **** 0.06
27164 H 104.30739552284747 136.729784047339 118.08498209602004 H 0.0 **** 0.06
27165 H 103.9399482993143 138.3743746693128 118.65876223050873 H 0.0 **** 0.06
27166 C 138.12708006139104 34.144898581922455 1.8996277447852492 C 0.0 **** -0.24
27167 H 137.07098995104258 34.226741608468906 1.6435803436079084 H 0.0 **** 0.06
27168 H 138.38207493567893 34.90589899795979 2.6364729339916835 H 0.0 **** 0.06
27169 H 138.73036442649968 34.28921394514972 1.003035322667472 H 0.0 **** 0.06
27170 H 138.32378973140766 33.156183027793645 2.314819000135003 H 0.0 **** 0.06
27171 C 106.74986406534987 125.21512036711601 32.96057122789853 C 0.0 **** -0.24
27172 H 106.87549936150918 124.75411507453157 33.9399867502965 H 0.0 **** 0.06
27173 H 106.00607792248104 126.00904514935839 33.02565191411719 H 0.0 **** 0.06
27174 H 106.41618689721662 124.46230803930608 32.245406837555834 H 0.0 **** 0.06
27175 H 107.701134753791 125.63287042877286 32.63092617714966 H 0.0 **** 0.06
27176 C 83.56218872684649 107.41509113657352 43.5312503821976 C 0.0 **** -0.24
27177 H 83.74891643059826 107.87220631485567 44.50252497532942 H 0.0 **** 0.06
27178 H 82.49952827063746 107.186607845606 43.43609712700831 H 0.0 **** 0.06
27179 H 84.14113711280433 106.49497894114765 43.44472719557082 H 0.0 **** 0.06
27180 H 83.85746444517527 108.10629945996132 42.74173394247536 H 0.0 **** 0.06
27181 C 124.59365474740798 24.764596848482682 133.54298165132758 C 0.0 **** -0.24
27182 H 123.86557031415953 24.32526925354786 134.22412346748217 H 0.0 **** 0.06
27183 H 124.32923933530947 24.510888306141183 132.51600287858497 H 0.0 **** 0.06
27184 H 125.58623155465062 24.374430178794 133.7702330337226 H 0.0 **** 0.06
27185 H 124.59378906759355 25.848012137039007 133.66061315260055 H 0.0 **** 0.06
27186 C 86.49257741171743 37.83859646712739 132.8414963137818 C 0.0 **** -0.24
27187 H 85.86138977078198 36.9698567601809 132.65654403483572 H 0.0 **** 0.06
27188 H 86.7677568276274 38.29585733471299 131.89130387754935 H 0.0 **** 0.06
27189 H 87.39423480541271 37.526270002864806 133.36907384756697 H 0.0 **** 0.06
27190 H 85.9483632044755 38.560688408930446 133.44913762603787 H 0.0 **** 0.06
27191 C 65.87166380559181 100.58930430415387 130.41805081919208 C 0.0 **** -0.24
27192 H 66.3905725774422 101.35016883566777 129.83562767676773 H 0.0 **** 0.06
27193 H 66.55409202882068 100.17054050196447 131.15846053407253 H 0.0 **** 0.06
27194 H 65.52465193107568 99.79690724906587 129.7554260905678 H 0.0 **** 0.06
27195 H 65.01751760479678 101.03896499881101 130.92482536933687 H 0.0 **** 0.06
27196 C 46.1100250071716 28.418892106810375 47.40661453202496 C 0.0 **** -0.24
27197 H 45.25607963974244 28.90330917669334 46.931502572269935 H 0.0 **** 0.06
27198 H 46.27823547277359 27.446108704916014 46.945381884339795 H 0.0 **** 0.06
27199 H 45.90698793891704 28.287910121595075 48.46973850748043 H 0.0 **** 0.06
27200 H 46.996643824700186 29.040324175845257 47.27998451467795 H 0.0 **** 0.06
27201 C 50.02800725146594 136.4332982379123 17.169505067753704 C 0.0 **** -0.24
27202 H 49.88663402864242 136.66814342181058 18.22434829597387 H 0.0 **** 0.06
27203 H 49.10575913980668 136.01604403754675 16.764804853605426 H 0.0 **** 0.06
27204 H 50.83252137840364 135.70620557013658 17.06401989450069 H 0.0 **** 0.06
27205 H 50.28503854489006 137.34283618720525 16.6272325366061 H 0.0 **** 0.06
27206 C 81.0422132088636 16.97846515714314 142.21717860847323 C 0.0 **** -0.24
27207 H 81.1212159193061 16.059456258899914 142.79877912062037 H 0.0 **** 0.06
27208 H 81.65619318942373 17.75356378532289 142.67800035710022 H 0.0 **** 0.06
27209 H 80.00284708226819 17.304759922215666 142.1928960161442 H 0.0 **** 0.06
27210 H 81.38989148544312 16.795828956376504 141.2011029877801 H 0.0 **** 0.06
27211 C 52.19870788554826 53.74594894427328 0.28135234061469205 C 0.0 **** -0.24
27212 H 51.44651975086117 54.41640358248431 -0.13391801588878138 H 0.0 **** 0.06
27213 H 52.30166247346088 53.93431023728134 1.3502818510189023 H 0.0 **** 0.06
27214 H 53.153902821453926 53.92069827942677 -0.21268121363492298 H 0.0 **** 0.06
27215 H 51.89076948057456 52.71251272227124 0.12276355064715005 H 0.0 **** 0.06
27216 C 136.12562337533373 79.48660455638802 14.260227177359212 C 0.0 **** -0.24
27217 H 135.59513947080887 80.40310161961166 14.518608403940533 H 0.0 **** 0.06
27218 H 135.90584996246176 79.2193043919199 13.225621331963282 H 0.0 **** 0.06
27219 H 135.80072279723225 78.68158300410236 14.919621463839604 H 0.0 **** 0.06
27220 H 137.19780103507222 79.64208976326974 14.376055807337792 H 0.0 **** 0.06
27221 C 114.46097658830865 47.45884442628392 129.462592315113 C 0.0 **** -0.24
27222 H 113.78817228901715 47.183796535364166 128.64970181024609 H 0.0 **** 0.06
27223 H 114.35422137845586 46.744459176523065 130.27869826539268 H 0.0 **** 0.06
27224 H 114.2105639660295 48.45874658269278 129.81842252370387 H 0.0 **** 0.06
27225 H 115.48889192465396 47.44842827531474 129.10136327097922 H 0.0 **** 0.06
27226 C 104.49925912479605 79.08611537474198 93.7356231290472 C 0.0 **** -0.24
27227 H 105.57670487027745 79.00576989910118 93.88102320905199 H 0.0 **** 0.06
27228 H 104.29684349759816 79.53333352745132 92.76254619305111 H 0.0 **** 0.06
27229 H 104.073138871374 79.71194633010744 94.51953513076538 H 0.0 **** 0.06
27230 H 104.05202969892765 78.09367952533687 93.77971132228424 H 0.0 **** 0.06
27231 C 99.07775872222848 105.86699348784575 3.022490846070241 C 0.0 **** -0.24
27232 H 99.43654115838783 105.56235861973542 2.039408625896044 H 0.0 **** 0.06
27233 H 99.8322546213093 105.62828291564361 3.773391095492599 H 0.0 **** 0.06
27234 H 98.15460984605681 105.33735478643555 3.2530332442122756 H 0.0 **** 0.06
27235 H 98.89090787013642 106.941386079502 3.0230045338605294 H 0.0 **** 0.06
27236 C 42.657509183672715 14.832913022682789 88.18828651310898 C 0.0 **** -0.24
27237 H 43.09570452748673 14.614839870376073 87.21507853108123 H 0.0 **** 0.06
27238 H 43.273147687830374 15.566023549102823 88.70880169434969 H 0.0 **** 0.06
27239 H 42.60689615356259 13.916735286908391 88.77740586731726 H 0.0 **** 0.06
27240 H 41.65222006810845 15.232338968080313 88.05319536772525 H 0.0 **** 0.06
27241 C 24.495519778990733 97.55858747364569 46.55825847502912 C 0.0 **** -0.24
27242 H 24.493037243032717 98.59272889573315 46.21593233117474 H 0.0 **** 0.06
27243 H 24.71301783257904 96.89731542091418 45.71898450119791 H 0.0 **** 0.06
27244 H 23.517987484511373 97.31022178593356 46.97214978306937 H 0.0 **** 0.06
27245 H 25.2579056649587 97.4321785286788 47.32750126685794 H 0.0 **** 0.06
27246 C 126.31356350741484 139.937208033373 52.50998421180027 C 0.0 **** -0.24
27247 H 126.75754439569812 140.7336272756967 53.106041420371255 H 0.0 **** 0.06
27248 H 125.23395409739928 140.07806595796194 52.46171986772117 H 0.0 **** 0.06
27249 H 126.53485173640641 138.97338019769674 52.969841120014294 H 0.0 **** 0.06
27250 H 126.7299120323754 139.96183787639245 51.5028614886821 H 0.0 **** 0.06
27251 C 18.03696225477711 63.25136424863052 64.89771413111299 C 0.0 **** -0.24
27252 H 17.074866034759168 63.23068254400499 65.41010563061832 H 0.0 **** 0.06
27253 H 18.52690970040652 62.28306321349774 65.00442187847244 H 0.0 **** 0.06
27254 H 18.664877127038153 64.02675410434696 65.33660635319364 H 0.0 **** 0.06
27255 H 17.880808816721526 63.46591797960414 63.84111078024708 H 0.0 **** 0.06
27256 C 145.33834581151348 83.78266711105073 107.69431838047323 C 0.0 **** -0.24
27257 H 144.91530679116298 82.81657626854394 107.4191959302404 H 0.0 **** 0.06
27258 H 145.87441928208096 83.68857404502972 108.63911129888571 H 0.0 **** 0.06
27259 H 144.53524154571647 84.51181744342591 107.80369959118393 H 0.0 **** 0.06
27260 H 146.02575234510672 84.11360401646675 106.9166443724307 H 0.0 **** 0.06
27261 C 18.242234111402013 9.548749001999681 120.70034863848551 C 0.0 **** -0.24
27262 H 19.09094881487931 10.070319774202318 121.14419572108929 H 0.0 **** 0.06
27263 H 18.548950027269427 9.094254038473736 119.75751427555716 H 0.0 **** 0.06
27264 H 17.435782164669888 10.25863543901275 120.51707455021503 H 0.0 **** 0.06
27265 H 17.895466762898025 8.77263619995469 121.38198650625932 H 0.0 **** 0.06
27266 C 119.4550289003092 103.7531629202011 0.8390612839385234 C 0.0 **** -0.24
27267 H 119.09821097142967 104.50670237404505 0.1378330048676446 H 0.0 **** 0.06
27268 H 120.49826217931027 103.95134442762713 1.0863310568257312 H 0.0 **** 0.06
27269 H 119.36952569629474 102.76502040064977 0.38678209150845433 H 0.0 **** 0.06
27270 H 118.85312605201719 103.78969143173278 1.747536689475396 H 0.0 **** 0.06
27271 C 143.1116859959798 120.95612954861436 142.1191938173184 C 0.0 **** -0.24
27272 H 142.15981782559479 121.47288500989738 142.24377591088188 H 0.0 **** 0.06
27273 H 143.92656600363776 121.61969264434823 142.41044891920396 H 0.0 **** 0.06
27274 H 143.2337809202199 120.66565870436894 141.0761174159897 H 0.0 **** 0.06
27275 H 143.1259530641217 120.06576957344167 142.7485176613781 H 0.0 **** 0.06
27276 C 52.26170873010349 56.71692597232601 23.295140907925088 C 0.0 **** -0.24
27277 H 53.19422699965921 57.18874695182994 22.984550242342266 H 0.0 **** 0.06
27278 H 52.36091772617684 55.63432609444243 23.223252597247495 H 0.0 **** 0.06
27279 H 51.4514420379966 57.052249766131 22.646858726110054 H 0.0 **** 0.06
27280 H 52.0409486474299 56.99421616162857 24.325525301696644 H 0.0 **** 0.06
27281 C 31.310192593978364 120.91752478843718 60.01460455435986 C 0.0 **** -0.24
27282 H 31.920657620486324 121.80480834796968 60.18389204493181 H 0.0 **** 0.06
27283 H 30.532769575564195 120.86134015499736 60.77699990053017 H 0.0 **** 0.06
27284 H 31.937855942111696 120.02845839615775 60.06872048701209 H 0.0 **** 0.06
27285 H 30.848727522353933 120.97732523978924 59.02855444331081 H 0.0 **** 0.06
27286 C 33.54763489641644 66.64251034814443 66.68243013439478 C 0.0 **** -0.24
27287 H 33.27445999350087 66.09879388641286 67.58592374831748 H 0.0 **** 0.06
27288 H 34.14251097088072 67.51597904482949 66.95073559353159 H 0.0 **** 0.06
27289 H 32.6447974436941 66.96274163043552 66.16364858186412 H 0.0 **** 0.06
27290 H 34.13007017541452 65.9919952689701 66.02958620514035 H 0.0 **** 0.06
27291 C 34.44671562543439 87.55845731759148 34.029782862592555 C 0.0 **** -0.24
27292 H 33.8112970424404 87.33468844970184 34.88608921568479 H 0.0 **** 0.06
27293 H 35.14886876788796 86.73894054319744 33.873673424928455 H 0.0 **** 0.06
27294 H 34.99838747365192 88.47973401895764 34.21877053068343 H 0.0 **** 0.06
27295 H 33.82759674969461 87.68166874981718 33.140382660713186 H 0.0 **** 0.06
27296 C 20.069680400005474 73.58579997638964 135.84540364888403 C 0.0 **** -0.24
27297 H 19.747275578563894 73.87508347881703 134.84470583080918 H 0.0 **** 0.06
27298 H 19.731701332973934 74.33141406995259 136.5650616712 H 0.0 **** 0.06
27299 H 21.157800281045773 73.52180805593412 135.87190054646848 H 0.0 **** 0.06
27300 H 19.64141740247068 72.61567772851026 136.09709893402123 H 0.0 **** 0.06
27301 C 59.58921563786393 128.60568016441343 48.575706028580896 C 0.0 **** -0.24
27302 H 60.24315449334409 128.14566509312678 47.83491793460729 H 0.0 **** 0.06
27303 H 59.01575057606394 127.82967781503814 49.08509996146546 H 0.0 **** 0.06
27304 H 58.90658964290387 129.29581366750145 48.079617924656304 H 0.0 **** 0.06
27305 H 60.19146217661873 129.1492865705693 49.30408512371935 H 0.0 **** 0.06
27306 C 101.68620981316178 73.0342157019474 119.93601011784517 C 0.0 **** -0.24
27307 H 101.16787295843011 73.94696725940128 120.22796276597603 H 0.0 **** 0.06
27308 H 100.96131110411248 72.23131819320406 119.8027759686318 H 0.0 **** 0.06
27309 H 102.39806428518907 72.75592295052044 120.71261633503144 H 0.0 **** 0.06
27310 H 102.21808887382197 73.20300525627255 118.99853385612784 H 0.0 **** 0.06
27311 C 102.8971382639266 114.33710490045458 101.2149715967887 C 0.0 **** -0.24
27312 H 102.3547907728495 113.47075020882473 100.8364776895628 H 0.0 **** 0.06
27313 H 102.39093613081789 115.24885358249973 100.8980100332196 H 0.0 **** 0.06
27314 H 103.9130012046701 114.32911301521297 100.8212858528623 H 0.0 **** 0.06
27315 H 102.92819851355097 114.29857484208448 102.30382539308786 H 0.0 **** 0.06
27316 C 53.0370363507069 101.08127556499564 93.339551612788 C 0.0 **** -0.24
27317 H 52.256379117340146 101.42626259899102 94.01681971663305 H 0.0 **** 0.06
27318 H 53.48356767969642 100.16951694505066 93.73513579770741 H 0.0 **** 0.06
27319 H 53.80244614921827 101.8505623284805 93.24555404974859 H 0.0 **** 0.06
27320 H 52.60327365294671 100.87810880231083 92.35950050968455 H 0.0 **** 0.06
27321 C 84.25773638484455 11.477106891798371 29.736649461654707 C 0.0 **** -0.24
27322 H 83.81862720344583 11.74282620592058 28.775312243461855 H 0.0 **** 0.06
27323 H 84.80860822015761 12.32999002661191 30.132802794250125 H 0.0 **** 0.06
27324 H 84.93640941045052 10.633877564410739 29.605073783904743 H 0.0 **** 0.06
27325 H 83.46550940379291 11.20088797075789 30.432371682024723 H 0.0 **** 0.06
27326 C 76.85070263793936 138.44668169261254 108.41105511822268 C 0.0 **** -0.24
27327 H 76.0316698427148 137.7408011750609 108.27250953245259 H 0.0 **** 0.06
27328 H 77.05657515413068 138.954369191003 107.46796664382815 H 0.0 **** 0.06
27329 H 77.74224567937236 137.9088331381607 108.73645781919758 H 0.0 **** 0.06
27330 H 76.57293770056317 139.18117095318073 109.16682958847899 H 0.0 **** 0.06
27331 C 118.18070887281513 36.21580079226035 124.046726627594 C 0.0 **** -0.24
27332 H 119.01640319273977 35.80228030487068 124.61235615281933 H 0.0 **** 0.06
27333 H 117.24784196868043 36.00516837038845 124.57054554415859 H 0.0 **** 0.06
27334 H 118.15222203378468 35.76185293943037 123.05623950680007 H 0.0 **** 0.06
27335 H 118.30829923111938 37.294167023496975 123.94924897704783 H 0.0 **** 0.06
27336 C 64.78860398840344 63.81721227661913 81.45290316690661 C 0.0 **** -0.24
27337 H 63.86800940456703 64.39086367015037 81.56028839547359 H 0.0 **** 0.06
27338 H 64.55387548291199 62.82287676140416 81.07365089228111 H 0.0 **** 0.06
27339 H 65.27740286517339 63.73037607965529 82.4233906931007 H 0.0 **** 0.06
27340 H 65.45449723518757 64.32620490944473 80.75548032940627 H 0.0 **** 0.06
27341 C 32.10260480850479 35.57618558676731 54.07953817896181 C 0.0 **** -0.24
27342 H 32.511866315730344 35.41169702588046 55.07645715331152 H 0.0 **** 0.06
27343 H 31.061055094941423 35.887867767883385 54.16151582425135 H 0.0 **** 0.06
27344 H 32.161776122890785 34.65193707914142 53.50519043873389 H 0.0 **** 0.06
27345 H 32.67655828184695 36.35351074833918 53.575465878117015 H 0.0 **** 0.06
27346 C 3.2103873406385617 103.11078093883211 7.3262499096047975 C 0.0 **** -0.24
27347 H 3.499889436442345 102.08022692849347 7.536149751731614 H 0.0 **** 0.06
27348 H 3.9647004085292537 103.57816737914071 6.69244974171707 H 0.0 **** 0.06
27349 H 3.130400921989242 103.66271840179145 8.262831519121391 H 0.0 **** 0.06
27350 H 2.2482427670939487 103.11977782856749 6.815350980245256 H 0.0 **** 0.06
27351 C 85.83147344199321 67.5495823735377 129.61426940690527 C 0.0 **** -0.24
27352 H 84.97312935626792 67.91627384679356 130.176286885055 H 0.0 **** 0.06
27353 H 86.55808074554315 67.11648032504431 130.30211921853873 H 0.0 **** 0.06
27354 H 86.29082782036238 68.37708335737273 129.07249673799961 H 0.0 **** 0.06
27355 H 85.50326453212355 66.78916939021394 128.90573719396014 H 0.0 **** 0.06
27356 C 75.11451806184846 29.360703901347193 134.97094288646005 C 0.0 **** -0.24
27357 H 74.8555841269071 29.552358432162237 133.92936347076756 H 0.0 **** 0.06
27358 H 75.71309227401804 30.18763904628554 135.35400437972933 H 0.0 **** 0.06
27359 H 75.68585493332938 28.435445738309966 135.03923906289853 H 0.0 **** 0.06
27360 H 74.20161008411964 29.268197466592127 135.56039563045144 H 0.0 **** 0.06
27361 C 69.65495570334333 67.77905440173546 126.11953639643164 C 0.0 **** -0.24
27362 H 70.3112106435822 68.3413409200662 126.7843305383175 H 0.0 **** 0.06
27363 H 68.619502979318 68.06112981262032 126.30844374217914 H 0.0 **** 0.06
27364 H 69.78123340282313 66.71201638193467 126.30316839041708 H 0.0 **** 0.06
27365 H 69.91001390495543 68.00257748912148 125.08412942563444 H 0.0 **** 0.06
27366 C 39.11052722780124 139.4306379711328 115.24145625980091 C 0.0 **** -0.24
27367 H 38.17070168826319 139.98126916600424 115.27814585295985 H 0.0 **** 0.06
27368 H 39.62676356422628 139.652730860968 114.30741680863915 H 0.0 **** 0.06
27369 H 38.906514174476854 138.36078863957616 115.2988151199007 H 0.0 **** 0.06
27370 H 39.73748928635922 139.7270220734469 116.08246752179505 H 0.0 **** 0.06
27371 C 103.04832914814268 11.173947240113797 28.01567612663345 C 0.0 **** -0.24
27372 H 104.03234954550139 11.531682295903252 28.319410224690586 H 0.0 **** 0.06
27373 H 103.14439766802411 10.571908530404677 27.11110428993163 H 0.0 **** 0.06
27374 H 102.39766488079768 12.026121471026883 27.816748921397988 H 0.0 **** 0.06
27375 H 102.61953301266868 10.567309078316924 28.812973992918472 H 0.0 **** 0.06
27376 C 121.46814188043156 15.937334869729995 29.859199583714627 C 0.0 **** -0.24
27377 H 122.42926604686566 15.56643538696079 29.50153094229003 H 0.0 **** 0.06
27378 H 121.61645610944608 16.88044561677154 30.385251775382557 H 0.0 **** 0.06
27379 H 121.02745156199911 15.207493765418434 30.537041619438554 H 0.0 **** 0.06
27380 H 120.80187681099649 16.094182040935777 29.01068869097739 H 0.0 **** 0.06
27381 C 114.50783638941594 60.51288894803699 77.28336680736024 C 0.0 **** -0.24
27382 H 113.60506819676131 61.074484962364906 77.52382555174282 H 0.0 **** 0.06
27383 H 114.53531053369959 59.597679976438116 77.8746498197053 H 0.0 **** 0.06
27384 H 115.38402399097161 61.120188535790476 77.511709572267 H 0.0 **** 0.06
27385 H 114.50698965860643 60.262130769567634 76.22263238603426 H 0.0 **** 0.06
27386 C 31.726291150618643 104.23275644960367 138.95749611312183 C 0.0 **** -0.24
27387 H 31.300822727624762 104.13754325818836 137.95825791034596 H 0.0 **** 0.06
27388 H 32.672249570453374 103.69403773091099 139.00320896331803 H 0.0 **** 0.06
27389 H 31.033068756677793 103.81488658963164 139.68748541927826 H 0.0 **** 0.06
27390 H 31.89641092970807 105.28651616805426 139.17950205066873 H 0.0 **** 0.06
27391 C 107.6164388990934 75.27205428949478 81.71605215959082 C 0.0 **** -0.24
27392 H 108.69753810300892 75.15956738936111 81.79203285240834 H 0.0 **** 0.06
27393 H 107.1570340866449 75.02345610175348 82.67339854986346 H 0.0 **** 0.06
27394 H 107.23498847137432 74.60211384813546 80.94463182673819 H 0.0 **** 0.06
27395 H 107.37619493534532 76.3030798187289 81.45414540935309 H 0.0 **** 0.06
27396 C 53.914581038963675 72.23325289067864 112.08969087355678 C 0.0 **** -0.24
27397 H 53.51874517573876 72.52996910447953 111.11795459585863 H 0.0 **** 0.06
27398 H 54.95510479333933 72.54945096426007 112.17055520219503 H 0.0 **** 0.06
27399 H 53.855375275116 71.14942489536193 112.18969814500213 H 0.0 **** 0.06
27400 H 53.328756612481584 72.70339069042646 112.87942378921701 H 0.0 **** 0.06
27401 C 121.76094484301277 109.85051585786954 119.23895855271077 C 0.0 **** -0.24
27402 H 121.30831064137143 109.46617246883835 120.15346846037143 H 0.0 **** 0.06
27403 H 122.6392273769629 110.445176510691 119.49123502538792 H 0.0 **** 0.06
27404 H 121.03846763238622 110.47364974551408 118.71132538541174 H 0.0 **** 0.06
27405 H 122.05570928392862 109.01653149270186 118.60214076643142 H 0.0 **** 0.06
27406 C 70.11777981631278 131.67003055719044 129.50256171525146 C 0.0 **** -0.24
27407 H 69.32392748052808 132.401173507556 129.35192863937866 H 0.0 **** 0.06
27408 H 71.04847581066699 132.05249863942643 129.08216895028517 H 0.0 **** 0.06
27409 H 69.85171502561789 130.73686039979978 129.0050127962723 H 0.0 **** 0.06
27410 H 70.24813744806218 131.4886320617629 130.56918927343216 H 0.0 **** 0.06
27411 C 77.80362383812296 39.87895077225207 132.15095943331417 C 0.0 **** -0.24
27412 H 77.84990682096954 40.55536905396069 133.00520831266036 H 0.0 **** 0.06
27413 H 78.44221841865905 39.015196762354606 132.338028677189 H 0.0 **** 0.06
27414 H 78.14777275595698 40.40021828898716 131.25772285120993 H 0.0 **** 0.06
27415 H 76.77581681370143 39.548286108425415 132.00585106197283 H 0.0 **** 0.06
27416 C 82.30868248371235 129.78191276370663 38.12407668392922 C 0.0 **** -0.24
27417 H 82.2208426274525 129.21696987229376 37.19505748802777 H 0.0 **** 0.06
27418 H 81.76228566274887 130.7208498549235 38.029940670524525 H 0.0 **** 0.06
27419 H 83.35990936734578 129.99145963284508 38.32320997786263 H 0.0 **** 0.06
27420 H 81.89238181839227 129.19854203684486 38.944424891609685 H 0.0 **** 0.06
27421 C 105.0465854572426 50.02402907148924 122.24553309108362 C 0.0 **** -0.24
27422 H 104.9569154881609 51.0507891958256 122.60002404031772 H 0.0 **** 0.06
27423 H 104.28473078244102 49.406574337433625 122.72092764673155 H 0.0 **** 0.06
27424 H 106.03504329046926 49.63847788376634 122.49534560100565 H 0.0 **** 0.06
27425 H 104.91066398845342 50.00080310104124 121.16391215902505 H 0.0 **** 0.06
27426 C 136.75862815855166 121.39604778143466 48.6671448095254 C 0.0 **** -0.24
27427 H 135.90156160956667 120.73476341439961 48.7941637380829 H 0.0 **** 0.06
27428 H 136.40969602603872 122.41369212267684 48.492272711399806 H 0.0 **** 0.06
27429 H 137.35209226758963 121.0625139125268 47.81582441750699 H 0.0 **** 0.06
27430 H 137.37169613041925 121.37162513339045 49.5688017014309 H 0.0 **** 0.06
27431 C 78.23415494727371 8.861291872669721 101.59668777394444 C 0.0 **** -0.24
27432 H 77.82633547118301 8.420957099895269 100.68750605209698 H 0.0 **** 0.06
27433 H 79.08446741621482 9.493912193529738 101.34452101255158 H 0.0 **** 0.06
27434 H 78.558382248819 8.067387592586734 102.27039215947156 H 0.0 **** 0.06
27435 H 77.46664126504172 9.460952767448745 102.0850651025745 H 0.0 **** 0.06
27436 C 47.19750049280208 18.465954022865958 85.15166583394436 C 0.0 **** -0.24
27437 H 47.84151466277795 19.284046133015636 84.82864268241711 H 0.0 **** 0.06
27438 H 47.71425830909038 17.872520142718486 85.90487524493349 H 0.0 **** 0.06
27439 H 46.9541041330518 17.836561134807596 84.29609311963277 H 0.0 **** 0.06
27440 H 46.279596458372325 18.873141476341573 85.5757465594343 H 0.0 **** 0.06
27441 C 66.06176536784385 92.63807293175412 56.35671103861175 C 0.0 **** -0.24
27442 H 65.58118338349273 92.4998400971381 55.38793833184073 H 0.0 **** 0.06
27443 H 65.74799869521814 93.59060560781441 56.78477284727428 H 0.0 **** 0.06
27444 H 67.14455126524061 92.63647098280316 56.228453233939064 H 0.0 **** 0.06
27445 H 65.77341107503146 91.82618301641949 57.024521993592515 H 0.0 **** 0.06
27446 C 122.457018463447 99.78936661594663 3.056464795385267 C 0.0 **** -0.24
27447 H 122.36342689775479 99.01780737460034 2.292224745808795 H 0.0 **** 0.06
27448 H 121.84527317676084 99.52267538119477 3.9187666112845534 H 0.0 **** 0.06
27449 H 122.1210860971406 100.74397525613857 2.651961803541951 H 0.0 **** 0.06
27450 H 123.4999914803768 99.87124919888132 3.3628574141824856 H 0.0 **** 0.06
27451 C 87.34730104684405 14.757485484945875 145.0956496318818 C 0.0 **** -0.24
27452 H 86.65209851807111 14.086467472899443 144.5914312713891 H 0.0 **** 0.06
27453 H 87.74352512604486 14.268080451583728 145.98539290443634 H 0.0 **** 0.06
27454 H 86.82681673804342 15.671083219095635 145.3828362579413 H 0.0 **** 0.06
27455 H 88.16726040409657 15.003437582549822 144.42011120844208 H 0.0 **** 0.06
27456 C 104.31058681360535 110.45181415436826 28.950076768598052 C 0.0 **** -0.24
27457 H 105.05607742867976 110.61901044728063 28.173050377959015 H 0.0 **** 0.06
27458 H 103.47881977327637 109.8784377103513 28.538414253747845 H 0.0 **** 0.06
27459 H 103.94475296551364 111.4108379570647 29.31593030162429 H 0.0 **** 0.06
27460 H 104.76128797228681 109.89703331718073 29.77342397103328 H 0.0 **** 0.06
27461 C 74.15586837716636 12.435332125162688 7.433284241843179 C 0.0 **** -0.24
27462 H 73.5390286553697 12.17128963985013 8.291760904436241 H 0.0 **** 0.06
27463 H 73.77910330482163 11.927234154634931 6.545655702106689 H 0.0 **** 0.06
27464 H 75.18576100229059 12.128342663609317 7.617879980443213 H 0.0 **** 0.06
27465 H 74.1208246515226 13.513807227777562 7.278852087141356 H 0.0 **** 0.06
27466 C 24.75190968018825 83.61429163997383 104.25338739423867 C 0.0 **** -0.24
27467 H 24.569100552947134 83.86740641757572 105.29735654908005 H 0.0 **** 0.06
27468 H 24.027196177256087 84.12982008828419 103.62202638870059 H 0.0 **** 0.06
27469 H 24.65082010756646 82.53713036557015 104.11746674992395 H 0.0 **** 0.06
27470 H 25.76054130390031 83.92262644619885 103.97571699109568 H 0.0 **** 0.06
27471 C 90.4405499903697 94.41098572603666 135.7742083274931 C 0.0 **** -0.24
27472 H 90.78529318880274 95.42607411909675 135.9689325866424 H 0.0 **** 0.06
27473 H 89.62786405071077 94.16562973635561 136.45875412496724 H 0.0 **** 0.06
27474 H 91.2648202672211 93.7125084992887 135.9221881178146 H 0.0 **** 0.06
27475 H 90.08424468734555 94.33835695695316 134.74662256858068 H 0.0 **** 0.06
27476 C 1.3523479347439888 44.43964699107664 137.7052669112656 C 0.0 **** -0.24
27477 H 0.4691797553667527 43.806683413684084 137.62290221653853 H 0.0 **** 0.06
27478 H 1.435013613658839 45.065169563335644 136.81627658103443 H 0.0 **** 0.06
27479 H 2.239989680261374 43.814709396353976 137.7945415295332 H 0.0 **** 0.06
27480 H 1.2633126767394174 45.07369693312714 138.58861700280676 H 0.0 **** 0.06
27481 C 47.64540782195478 123.48106708868713 128.7919117916107 C 0.0 **** -0.24
27482 H 47.027188742928445 122.62705325276035 128.51300053647003 H 0.0 **** 0.06
27483 H 47.6395686494932 123.59442199324693 129.87709038090173 H 0.0 **** 0.06
27484 H 47.24696165565017 124.38381058917972 128.3299543499054 H 0.0 **** 0.06
27485 H 48.667196059558165 123.31722387783316 128.44914932518944 H 0.0 **** 0.06
27486 C 89.72449735510044 48.87035436722056 87.66457047666162 C 0.0 **** -0.24
27487 H 90.551929749341 49.57831452440601 87.70672405944734 H 0.0 **** 0.06
27488 H 89.1970504254905 48.98416684835675 86.71664831623528 H 0.0 **** 0.06
27489 H 89.03689225913193 49.065322523508854 88.48810043137942 H 0.0 **** 0.06
27490 H 90.11039824228192 47.85485524824105 87.74609890343888 H 0.0 **** 0.06
27491 C 39.912378045729604 106.52104921147867 50.93122843392723 C 0.0 **** -0.24
27492 H 40.55081548881541 105.63853998950077 50.96656937473966 H 0.0 **** 0.06
27493 H 39.101385850115875 106.41118525494142 51.652673899963474 H 0.0 **** 0.06
27494 H 39.495441441586394 106.6284030270827 49.929595793771796 H 0.0 **** 0.06
27495 H 40.49992367961642 107.4053411690802 51.17690247323293 H 0.0 **** 0.06
27496 C 80.58489542373746 13.901209655854586 117.76001820877302 C 0.0 **** -0.24
27497 H 80.02787931305448 13.99224454018497 116.82669797117804 H 0.0 **** 0.06
27498 H 80.57381693126092 14.857914109756052 118.28432236415394 H 0.0 **** 0.06
27499 H 81.6139629685947 13.617774056494909 117.5419125178267 H 0.0 **** 0.06
27500 H 80.121413178703 13.13806300555666 118.38530558195067 H 0.0 **** 0.06
27501 C 135.2953266662327 65.41701147976194 0.8999978714801955 C 0.0 **** -0.24
27502 H 136.2275190236373 65.98187703435707 0.9322042950873879 H 0.0 **** 0.06
27503 H 135.29349963762238 64.67512420763317 1.699883442178475 H 0.0 **** 0.06
27504 H 135.208543059834 64.91482973554425 -0.06326012885597265 H 0.0 **** 0.06
27505 H 134.45417023341912 66.09662200024397 1.0328822100667594 H 0.0 **** 0.06
27506 C 36.77513811626321 81.56083946435666 86.79673375118577 C 0.0 **** -0.24
27507 H 35.781304945807165 81.17688967029954 87.02519610488672 H 0.0 **** 0.06
27508 H 36.97199626836485 81.45035432679964 85.73041400824222 H 0.0 **** 0.06
27509 H 37.51927920489953 81.00194123442151 87.36429759014854 H 0.0 **** 0.06
27510 H 36.82845229571771 82.6152790534448 87.06915930530813 H 0.0 **** 0.06
27511 C 94.86526882363265 73.32376526789831 136.85668515431186 C 0.0 **** -0.24
27512 H 95.77748724405805 73.41595886014431 137.44557968003556 H 0.0 **** 0.06
27513 H 94.00239928329214 73.31406023021206 137.52368060181053 H 0.0 **** 0.06
27514 H 94.89374990758878 72.39510716463374 136.28600583454505 H 0.0 **** 0.06
27515 H 94.78777474500376 74.16847291772083 136.17341106862943 H 0.0 **** 0.06
27516 C 119.58674593323869 5.780371659169653 85.65164359139523 C 0.0 **** -0.24
27517 H 120.30839326757663 4.962414698956923 85.66652705802427 H 0.0 **** 0.06
27518 H 120.04882338222777 6.680047863555448 86.05848025390175 H 0.0 **** 0.06
27519 H 118.72115219080271 5.510259158341565 86.25706545639383 H 0.0 **** 0.06
27520 H 119.27010509837808 5.965503304955849 84.62557014397217 H 0.0 **** 0.06
27521 C 136.15599531744945 5.150416531873759 92.25493051953026 C 0.0 **** -0.24
27522 H 136.52681442524684 5.540988368601461 91.30729676942065 H 0.0 **** 0.06
27523 H 136.67169107816213 4.219907560010483 92.49145708461927 H 0.0 **** 0.06
27524 H 135.084379518954 4.962661892228681 92.1756541011037 H 0.0 **** 0.06
27525 H 136.33967396228556 5.878947667308694 93.04380654311016 H 0.0 **** 0.06
27526 C 51.35981058889354 138.7757641384817 42.07496609701414 C 0.0 **** -0.24
27527 H 50.346161181422474 138.5477077728101 41.74427273146357 H 0.0 **** 0.06
27528 H 51.92004443155653 137.8485188880293 42.193537451525046 H 0.0 **** 0.06
27529 H 51.321343871886995 139.30172488356706 43.02859992496754 H 0.0 **** 0.06
27530 H 51.849915788205834 139.40419994347974 41.33203192454236 H 0.0 **** 0.06
27531 C 69.92712896894012 0.652331112442198 50.31372334948945 C 0.0 **** -0.24
27532 H 69.70562421249745 -0.18443727643870034 50.97525199486756 H 0.0 **** 0.06
27533 H 71.00569010680526 0.8011259365891021 50.26485765224561 H 0.0 **** 0.06
27534 H 69.45189328343733 1.5545228114385168 50.6973064916032 H 0.0 **** 0.06
27535 H 69.54542932871603 0.43669044571760196 49.315756223122506 H 0.0 **** 0.06
27536 C 125.76744646934262 65.88884777963983 89.74601816549617 C 0.0 **** -0.24
27537 H 124.90556173799453 65.23279019567678 89.86955387275944 H 0.0 **** 0.06
27538 H 125.73522784380799 66.67556273709891 90.49993224740282 H 0.0 **** 0.06
27539 H 125.74346072389957 66.3358216692452 88.75265676102947 H 0.0 **** 0.06
27540 H 126.6836663436846 65.30983912910744 89.86271019907923 H 0.0 **** 0.06
27541 C 82.67785736465758 91.61222179241457 128.8548682853312 C 0.0 **** -0.24
27542 H 83.49673502282998 91.83704759590813 129.53885269460233 H 0.0 **** 0.06
27543 H 82.86282282375427 90.65464765121357 128.36908088547156 H 0.0 **** 0.06
27544 H 82.61026052332001 92.3963198207887 128.10038444309865 H 0.0 **** 0.06
27545 H 81.74343169210056 91.56248080041729 129.4131794523055 H 0.0 **** 0.06
27546 C 30.121131678061225 125.14397751006871 24.166693110435062 C 0.0 **** -0.24
27547 H 29.250385461754163 125.79400641626088 24.247230715987428 H 0.0 **** 0.06
27548 H 30.96725485275855 125.71567570384391 23.783864561178746 H 0.0 **** 0.06
27549 H 29.898774498832694 124.32257109743622 23.4849367585972 H 0.0 **** 0.06
27550 H 30.367898307249618 124.74318311678635 25.14908810082119 H 0.0 **** 0.06
27551 C 61.60226290566138 57.35883085558639 10.343949423349528 C 0.0 **** -0.24
27552 H 62.16604365329009 57.390012071017836 11.276245992188144 H 0.0 **** 0.06
27553 H 61.024600547948225 58.27739242541179 10.238741260658884 H 0.0 **** 0.06
27554 H 60.92684532556203 56.50359715390705 10.356922103499059 H 0.0 **** 0.06
27555 H 62.29296944123821 57.26548024559328 9.505524668311608 H 0.0 **** 0.06
27556 C 70.4535941815574 25.227041810003044 33.45662495689686 C 0.0 **** -0.24
27557 H 70.92987481619662 24.2477013187208 33.50693273170134 H 0.0 **** 0.06
27558 H 71.14490980706648 25.985513806548155 33.823841283191996 H 0.0 **** 0.06
27559 H 69.55462141214355 25.22442212539022 34.073736804233874 H 0.0 **** 0.06
27560 H 70.18468707513134 25.446970989407106 32.42405148854988 H 0.0 **** 0.06
27561 C 129.3707470947387 46.54584804903868 45.2344818288353 C 0.0 **** -0.24
27562 H 128.67935289155258 46.30222068300303 46.04239750905762 H 0.0 **** 0.06
27563 H 129.13705721128457 47.53572216075759 44.84391796763785 H 0.0 **** 0.06
27564 H 129.273253904677 45.80743231702438 44.4382430394584 H 0.0 **** 0.06
27565 H 130.39140259821775 46.53633761509998 45.616607174988616 H 0.0 **** 0.06
27566 C 34.3064369231962 12.54077796104633 14.715440934836238 C 0.0 **** -0.24
27567 H 34.38022712605215 13.523769078408606 14.248641800544078 H 0.0 **** 0.06
27568 H 34.61350338908028 11.776488647926882 14.000388490037608 H 0.0 **** 0.06
27569 H 33.27555272212851 12.360570823070049 15.020925903349621 H 0.0 **** 0.06
27570 H 34.957191246326516 12.504122002609293 15.589144575426758 H 0.0 **** 0.06
27571 C 36.00277399840004 81.05584738614542 112.75716670755642 C 0.0 **** -0.24
27572 H 36.99649310793044 81.25500892516877 113.1569289605782 H 0.0 **** 0.06
27573 H 35.79979099234332 81.73920816161652 111.93170264986102 H 0.0 **** 0.06
27574 H 35.259870162743304 81.20219004393081 113.54144193178368 H 0.0 **** 0.06
27575 H 35.95498218148197 80.02787413123531 112.39904411783769 H 0.0 **** 0.06
27576 C 99.31267954483477 20.52821507390044 80.93540399075567 C 0.0 **** -0.24
27577 H 98.66814284281898 20.175774496772817 80.13008357049415 H 0.0 **** 0.06
27578 H 99.86749635435855 19.686198296062145 81.35050999515204 H 0.0 **** 0.06
27579 H 98.70267739549624 20.982230826413073 81.71629128544464 H 0.0 **** 0.06
27580 H 100.01162076086433 21.26654740166188 80.54376078547398 H 0.0 **** 0.06
27581 C 69.35177332085132 65.51087109343922 56.822805450248325 C 0.0 **** -0.24
27582 H 69.56429144398084 65.39982632692528 57.88556739612466 H 0.0 **** 0.06
27583 H 69.4416979993135 66.55999356919631 56.54214114201787 H 0.0 **** 0.06
27584 H 68.33918135866648 65.16477066595627 56.6172309443552 H 0.0 **** 0.06
27585 H 70.0628278461804 64.91816663880792 56.24708954936378 H 0.0 **** 0.06
27586 C 1.995318855314423 102.22500451523547 90.13059412913515 C 0.0 **** -0.24
27587 H 1.4845098481179946 102.83788638353452 89.38869398729804 H 0.0 **** 0.06
27588 H 2.7115535789976093 102.83868217142832 90.67816924666442 H 0.0 **** 0.06
27589 H 2.5216198686508164 101.41147553080116 89.63050237083485 H 0.0 **** 0.06
27590 H 1.2642543653227278 101.81193456566618 90.82625990039861 H 0.0 **** 0.06
27591 C 27.94484247876406 145.44068582794898 86.71476938502352 C 0.0 **** -0.24
27592 H 27.36788396846552 144.68477073291757 86.18338997292082 H 0.0 **** 0.06
27593 H 27.922024778679656 146.37557649056703 86.15455986182215 H 0.0 **** 0.06
27594 H 28.97586007853843 145.10316903731646 86.81867801972047 H 0.0 **** 0.06
27595 H 27.513160887905713 145.59861871822926 87.7036481184733 H 0.0 **** 0.06
27596 C 102.50032916801736 67.67759472435128 92.0826385802273 C 0.0 **** -0.24
27597 H 102.62276107591747 67.42080289979177 91.02957763215413 H 0.0 **** 0.06
27598 H 103.47087715071368 67.64749114157121 92.57849371224437 H 0.0 **** 0.06
27599 H 101.82914233465026 66.96003970453776 92.55481432556681 H 0.0 **** 0.06
27600 H 102.0793150966466 68.678911527856 92.16510460600311 H 0.0 **** 0.06
27601 C 119.3627891494361 143.21048976941665 42.00922019139361 C 0.0 **** -0.24
27602 H 119.99819815590068 143.92988905982173 41.492340159999245 H 0.0 **** 0.06
27603 H 119.22335809829174 143.52800755178245 43.04313816985703 H 0.0 **** 0.06
27604 H 119.83777783254187 142.2286376415936 41.99088638045491 H 0.0 **** 0.06
27605 H 118.39550902803818 143.15575576922163 41.51106439760153 H 0.0 **** 0.06
27606 C 7.352169320413395 11.42672902195693 63.768565299002745 C 0.0 **** -0.24
27607 H 7.300461075270221 11.11630671011551 64.81258502194547 H 0.0 **** 0.06
27608 H 6.896506783127222 12.411656152279306 63.660157938182664 H 0.0 **** 0.06
27609 H 6.817458972868565 10.707146131245395 63.1487563008084 H 0.0 **** 0.06
27610 H 8.395122613397291 11.47203652829262 63.455792962704976 H 0.0 **** 0.06
27611 C 28.177631608938725 46.44362943055992 80.17280178000158 C 0.0 **** -0.24
27612 H 27.384773843425194 46.72236552847326 80.86775551886387 H 0.0 **** 0.06
27613 H 29.0756669431766 46.18344314618474 80.73337340390223 H 0.0 **** 0.06
27614 H 28.39165796383753 47.282486387787856 79.51098715772557 H 0.0 **** 0.06
27615 H 27.856970376635218 45.5864974060851 79.58076465365622 H 0.0 **** 0.06
27616 C 56.64974383335854 28.326185303900985 141.24304501546817 C 0.0 **** -0.24
27617 H 56.47838778661733 28.20990550831084 142.31374248072757 H 0.0 **** 0.06
27618 H 57.29208099855339 29.189743144983964 141.0693679162382 H 0.0 **** 0.06
27619 H 55.69516252795307 28.474446823203635 140.73834813418188 H 0.0 **** 0.06
27620 H 57.131691754522876 27.429648323611758 140.85341887397414 H 0.0 **** 0.06
27621 C 106.97651487545312 114.21252579950813 144.2333030477853 C 0.0 **** -0.24
27622 H 107.05182376197956 115.29919042311373 144.2785411261781 H 0.0 **** 0.06
27623 H 107.30351442163101 113.86618485132713 143.25242987568996 H 0.0 **** 0.06
27624 H 105.94238241953502 113.91282082643743 144.3989346490168 H 0.0 **** 0.06
27625 H 107.61046238850042 113.77224890890305 145.00391823794783 H 0.0 **** 0.06
27626 C 77.39288305338424 106.45924822072963 46.505959824797145 C 0.0 **** -0.24
27627 H 77.4862172250901 107.50048652168918 46.81139123333615 H 0.0 **** 0.06
27628 H 76.45125019644877 106.05418407338608 46.87717743663211 H 0.0 **** 0.06
27629 H 78.22222944189225 105.8840923811555 46.91668259018833 H 0.0 **** 0.06
27630 H 77.41137939374461 106.3968071863841 45.4172583227232 H 0.0 **** 0.06
27631 C 35.24245708077539 71.42788287446389 109.63504671880641 C 0.0 **** -0.24
27632 H 36.05192541568719 71.82306539804507 110.24922072246854 H 0.0 **** 0.06
27633 H 35.66138505536931 70.92588555178271 108.76208623842787 H 0.0 **** 0.06
27634 H 34.59976438645726 72.2471529141405 109.31021188040141 H 0.0 **** 0.06
27635 H 34.65786170985359 70.71630273896821 110.21859010377365 H 0.0 **** 0.06
27636 C 123.75170340158682 28.080495559118646 127.01289827991118 C 0.0 **** -0.24
27637 H 124.70542758069043 28.51038059608902 126.70845469431379 H 0.0 **** 0.06
27638 H 123.0929301380789 28.872192230223504 127.37093473330162 H 0.0 **** 0.06
27639 H 123.9175346722645 27.35667096501831 127.81067571313034 H 0.0 **** 0.06
27640 H 123.29027207376416 27.58137271749777 126.16068326930849 H 0.0 **** 0.06
27641 C 64.33183812403722 38.748792755668454 135.5263830730835 C 0.0 **** -0.24
27642 H 64.24163676331368 39.832256351905514 135.44413784961282 H 0.0 **** 0.06
27643 H 65.30738620117825 38.437039422009484 135.15212548569818 H 0.0 **** 0.06
27644 H 63.54713711318146 38.2739955459457 134.93671802904825 H 0.0 **** 0.06
27645 H 64.23042923807499 38.453652945579364 136.57104313891142 H 0.0 **** 0.06
27646 C 102.96509905049231 52.5967688530601 121.39164836831871 C 0.0 **** -0.24
27647 H 103.88192286896172 53.134137207704256 121.14657227786695 H 0.0 **** 0.06
27648 H 103.04425558948459 52.18333188579062 122.39715223136416 H 0.0 **** 0.06
27649 H 102.81735018858896 51.78672875888266 120.67674259902164 H 0.0 **** 0.06
27650 H 102.11880185700691 53.28199749724867 121.34490807631379 H 0.0 **** 0.06
27651 C 88.34176249128353 3.1110192545560835 131.43586864558023 C 0.0 **** -0.24
27652 H 87.80958001629662 2.3250311517255966 130.90111322298003 H 0.0 **** 0.06
27653 H 88.99156611936175 3.6456817021774732 130.7435687270087 H 0.0 **** 0.06
27654 H 88.94375485279986 2.667209637962973 132.22951854767575 H 0.0 **** 0.06
27655 H 87.62340919341766 3.8050772884490236 131.87177444570818 H 0.0 **** 0.06
27656 C 120.48420887459692 105.24429738630279 138.66626120338236 C 0.0 **** -0.24
27657 H 120.9560212786309 106.09193676321577 138.16942176067815 H 0.0 **** 0.06
27658 H 120.99988801764893 105.04088161164802 139.6049746619098 H 0.0 **** 0.06
27659 H 120.54237914458024 104.36718588040769 138.02183470051128 H 0.0 **** 0.06
27660 H 119.43898354145979 105.47805653297657 138.86858905510513 H 0.0 **** 0.06
27661 C 44.16446221111448 50.9255214970579 83.4308154261476 C 0.0 **** -0.24
27662 H 44.93550711969499 50.15815644256321 83.36908635856538 H 0.0 **** 0.06
27663 H 44.628781624362944 51.910939859109874 83.3814183268035 H 0.0 **** 0.06
27664 H 43.62472947783016 50.824526986551405 84.37289696315277 H 0.0 **** 0.06
27665 H 43.46943665492893 50.809542347746714 82.59917655559178 H 0.0 **** 0.06
27666 C 43.0795439690839 66.64493762749098 4.169540603700682 C 0.0 **** -0.24
27667 H 42.187311498962046 67.25347843405109 4.020761501094455 H 0.0 **** 0.06
27668 H 43.03011314693569 66.16118641391984 5.145219991103886 H 0.0 **** 0.06
27669 H 43.96446703970089 67.2807689189388 4.123078935169588 H 0.0 **** 0.06
27670 H 43.13525340549381 65.88590265178622 3.3897520258982468 H 0.0 **** 0.06
27671 C 10.698404365034861 28.908349756444096 75.05423689792839 C 0.0 **** -0.24
27672 H 10.434976125471934 29.961775166700903 74.96700557797766 H 0.0 **** 0.06
27673 H 11.7768277411555 28.79374072417167 74.94259143414217 H 0.0 **** 0.06
27674 H 10.189564482265808 28.34009978638707 74.27550469228756 H 0.0 **** 0.06
27675 H 10.393391390867606 28.537201128469917 76.03367794502725 H 0.0 **** 0.06
27676 C 13.975406674595135 123.548163275251 5.680847643300709 C 0.0 **** -0.24
27677 H 12.88736890798851 123.49058720258077 5.718857271551574 H 0.0 **** 0.06
27678 H 14.274737717797684 124.24541294162933 4.89828535935882 H 0.0 **** 0.06
27679 H 14.383832858040144 122.56158693804116 5.46507688813783 H 0.0 **** 0.06
27680 H 14.354075997420743 123.89623898110534 6.64218513357844 H 0.0 **** 0.06
27681 C 52.15671627118033 105.26903137292666 129.17931260078456 C 0.0 **** -0.24
27682 H 52.11846965126901 106.33733450234743 128.96778603299407 H 0.0 **** 0.06
27683 H 52.20673748190856 104.71398245209267 128.24288030558236 H 0.0 **** 0.06
27684 H 51.261891144261995 104.97574470081204 129.72882860836773 H 0.0 **** 0.06
27685 H 53.039921103660504 105.04957904912257 129.78014522828076 H 0.0 **** 0.06
27686 C 110.91939519535055 127.57785286352012 35.65779161181621 C 0.0 **** -0.24
27687 H 111.6307090650202 127.57222631621394 34.8323203605857 H 0.0 **** 0.06
27688 H 110.07955725021571 128.22862139880638 35.4088869055098 H 0.0 **** 0.06
27689 H 111.410812755709 127.94783133329233 36.55828295561932 H 0.0 **** 0.06
27690 H 110.55549581721056 126.56547916952215 35.83100999676654 H 0.0 **** 0.06
27691 C 106.0513777119678 143.63152089171388 3.1763503584618604 C 0.0 **** -0.24
27692 H 105.21995978605412 143.46835198706387 3.8609283077335306 H 0.0 **** 0.06
27693 H 105.94977117084034 142.967736728238 2.316986262185651 H 0.0 **** 0.06
27694 H 106.98994259561573 143.42074644639948 3.688542675820969 H 0.0 **** 0.06
27695 H 106.04597365673311 144.6673328474967 2.8377986476903345 H 0.0 **** 0.06
27696 C 107.61107111773502 55.219551299410725 5.367666128601787 C 0.0 **** -0.24
27697 H 106.58015420415363 54.902992985353364 5.2074410608001855 H 0.0 **** 0.06
27698 H 108.28106438676177 54.38164528673744 5.175061796964087 H 0.0 **** 0.06
27699 H 107.73163808603188 55.55192022548374 6.3991250153088295 H 0.0 **** 0.06
27700 H 107.84921130466326 56.03948767722943 4.690230909284551 H 0.0 **** 0.06
27701 C 127.94221211615746 90.81389513759461 139.0523049673048 C 0.0 **** -0.24
27702 H 128.0933231611203 89.8064778518923 138.6645553577127 H 0.0 **** 0.06
27703 H 126.87419090448981 91.01475983288528 139.13449953891433 H 0.0 **** 0.06
27704 H 128.3971274796623 91.53629156857116 138.37430399244425 H 0.0 **** 0.06
27705 H 128.40397847340236 90.89739044659721 140.03657591569288 H 0.0 **** 0.06
27706 C 5.065677157751168 4.469043190174819 19.222126493389453 C 0.0 **** -0.24
27707 H 4.613298850302726 5.132400545333834 18.485349215154187 H 0.0 **** 0.06
27708 H 5.604518060728026 5.061075662141125 19.962874759339627 H 0.0 **** 0.06
27709 H 5.760401892327565 3.7927023735977627 18.72354193281855 H 0.0 **** 0.06
27710 H 4.286624558212026 3.8897327870427425 19.71612784264218 H 0.0 **** 0.06
27711 C 6.222652639454715 0.9352893415665449 125.54228874388434 C 0.0 **** -0.24
27712 H 7.2993258581110325 0.8069332552081505 125.64999833853724 H 0.0 **** 0.06
27713 H 5.750517143202771 0.8774642855564139 126.52276016604668 H 0.0 **** 0.06
27714 H 5.82532750990309 0.14905376893983657 124.89990312139442 H 0.0 **** 0.06
27715 H 6.016083057837662 1.9075944391590838 125.09573564131126 H 0.0 **** 0.06
27716 C 65.50530882271019 0.9144685219255564 64.60887217682232 C 0.0 **** -0.24
27717 H 65.90492210364849 1.3716890743458237 65.51405032944108 H 0.0 **** 0.06
27718 H 66.14628281083074 0.08605701078039374 64.30740309619829 H 0.0 **** 0.06
27719 H 65.47006791349642 1.6568681514628167 63.812042376069385 H 0.0 **** 0.06
27720 H 64.49900686356432 0.542342791914848 64.80405351095129 H 0.0 **** 0.06
27721 C 129.5206286844397 81.96083441811379 56.306483024867646 C 0.0 **** -0.24
27722 H 130.52237475735598 82.07439308823021 56.720440891024424 H 0.0 **** 0.06
27723 H 128.9704039520053 82.89436719937368 56.42518936902883 H 0.0 **** 0.06
27724 H 128.99905197341604 81.1611645905034 56.83131799712828 H 0.0 **** 0.06
27725 H 129.59249151282086 81.71350106287292 55.246204312593335 H 0.0 **** 0.06
27726 C 81.4808228936428 4.19374107513147 66.8619567467776 C 0.0 **** -0.24
27727 H 80.80733642218092 4.040929443880827 66.01843407937824 H 0.0 **** 0.06
27728 H 81.00460418987366 4.8506725269458855 67.59123570674632 H 0.0 **** 0.06
27729 H 82.40606853471105 4.649402547895107 66.51037462545088 H 0.0 **** 0.06
27730 H 81.70216541885698 3.2334613759696538 67.32759209283608 H 0.0 **** 0.06
27731 C 115.7069738690403 138.03621079849216 72.27196061039325 C 0.0 **** -0.24
27732 H 116.07936075745906 137.01355485819153 72.21455228340491 H 0.0 **** 0.06
27733 H 114.62290272621951 138.03503904316887 72.15148508741774 H 0.0 **** 0.06
27734 H 116.15999381363216 138.63251237903341 71.48072727142744 H 0.0 **** 0.06
27735 H 115.96482681371961 138.46315237203152 73.24107135801827 H 0.0 **** 0.06
27736 C 121.82667438445539 19.943784053191933 113.64798996424956 C 0.0 **** -0.24
27737 H 122.75225817734277 19.62179077185877 113.17024851928359 H 0.0 **** 0.06
27738 H 122.01429565950751 20.842627997447494 114.23640204093131 H 0.0 **** 0.06
27739 H 121.45917476816958 19.151703090411246 114.30022432870372 H 0.0 **** 0.06
27740 H 121.07985750596963 20.15961823566394 112.8829872745181 H 0.0 **** 0.06
27741 C 129.60147166086603 35.33832142645264 37.31495093041869 C 0.0 **** -0.24
27742 H 130.62880388887044 35.7028764711184 37.3159600547705 H 0.0 **** 0.06
27743 H 129.33440629626378 35.007291570413784 36.311269093526874 H 0.0 **** 0.06
27744 H 128.93119454828286 36.141467958503114 37.62302427535542 H 0.0 **** 0.06
27745 H 129.5114306607217 34.504098280733416 38.00959630097435 H 0.0 **** 0.06
27746 C 108.73748790504904 0.9617432510423214 58.12002073386475 C 0.0 **** -0.24
27747 H 107.87853665596397 0.5944307257179844 57.55833918600399 H 0.0 **** 0.06
27748 H 108.58423619881658 0.7700379587474515 59.18223959607792 H 0.0 **** 0.06
27749 H 108.84603046331439 2.033720589369352 57.956142787847114 H 0.0 **** 0.06
27750 H 109.63745820114785 0.4489159158475502 57.78396658738552 H 0.0 **** 0.06
27751 C 63.65968034779232 138.54854593904804 144.32739893526025 C 0.0 **** -0.24
27752 H 63.92562379287847 138.67072277937643 145.377389316864 H 0.0 **** 0.06
27753 H 64.428062130313 137.9594261584319 143.82504617841815 H 0.0 **** 0.06
27754 H 63.58625003501511 139.52822707528966 143.8556333784298 H 0.0 **** 0.06
27755 H 62.70092928110843 138.03579575764223 144.25216246931683 H 0.0 **** 0.06
27756 C 20.93967387477332 22.60203606700901 87.78543243325412 C 0.0 **** -0.24
27757 H 21.37368581403777 23.575274342059572 88.01619166674193 H 0.0 **** 0.06
27758 H 20.05465990008294 22.44408399767832 88.4012142724834 H 0.0 **** 0.06
27759 H 21.671415199824168 21.821624659614088 87.9911470613505 H 0.0 **** 0.06
27760 H 20.66031934648103 22.57024438624012 86.73157129364176 H 0.0 **** 0.06
27761 C 68.97788335645689 69.82669836406009 11.401104827742927 C 0.0 **** -0.24
27762 H 68.19629033462698 70.41457038861654 11.88124718165858 H 0.0 **** 0.06
27763 H 69.5144982285602 70.45073261983242 10.685868741167951 H 0.0 **** 0.06
27764 H 68.52867910222216 68.98108727798721 10.879952891793039 H 0.0 **** 0.06
27765 H 69.6730518030254 69.46026565145317 12.155933125643173 H 0.0 **** 0.06
27766 C 90.25188275308147 122.85875837858634 143.1020717377913 C 0.0 **** -0.24
27767 H 90.2189753277089 121.78456867850399 142.91725147190283 H 0.0 **** 0.06
27768 H 89.27482609436913 123.29308814279929 142.8901475956845 H 0.0 **** 0.06
27769 H 91.00206395213468 123.3152851659582 142.45502890003593 H 0.0 **** 0.06
27770 H 90.51231879962063 123.04033015327846 144.14428697703607 H 0.0 **** 0.06
27771 C 64.3771446763158 84.83824075342966 89.69767169426012 C 0.0 **** -0.24
27772 H 64.05247782764307 83.94973513014153 89.15776150283403 H 0.0 **** 0.06
27773 H 64.12135360449068 84.73632326225695 90.75283504479997 H 0.0 **** 0.06
27774 H 63.87930953294047 85.71656703557915 89.28559396819074 H 0.0 **** 0.06
27775 H 65.45719165969355 84.95209350364627 89.59585304717413 H 0.0 **** 0.06
27776 C 48.83243642730956 127.64294652288123 102.95655117041873 C 0.0 **** -0.24
27777 H 49.55846670022757 127.39649639911005 102.18155227218784 H 0.0 **** 0.06
27778 H 47.88660295183054 127.92427077625041 102.4926668811469 H 0.0 **** 0.06
27779 H 49.20681481216184 128.4752633795748 103.55365621150293 H 0.0 **** 0.06
27780 H 48.67919020068291 126.77542051932602 103.59867821171927 H 0.0 **** 0.06
27781 C 28.91889175403209 96.61802633164683 72.50687167988542 C 0.0 **** -0.24
27782 H 28.147019027014096 96.2173626119885 73.16354431431012 H 0.0 **** 0.06
27783 H 29.901014410249175 96.35536908439491 72.89949381084176 H 0.0 **** 0.06
27784 H 28.82542798104673 97.70213174085296 72.45609948695392 H 0.0 **** 0.06
27785 H 28.800764524676623 96.19632015642935 71.50894245581264 H 0.0 **** 0.06
27786 C 88.53796629610476 36.034043795035785 95.98083151563719 C 0.0 **** -0.24
27787 H 87.86236174595555 35.816724861624266 95.1533142138369 H 0.0 **** 0.06
27788 H 89.50108150979757 36.36044091808543 95.5863901766991 H 0.0 **** 0.06
27789 H 88.6769992569982 35.13563482781035 96.58214013617561 H 0.0 **** 0.06
27790 H 88.11225121563105 36.82324279553404 96.60034301176464 H 0.0 **** 0.06
27791 C 63.280777757672325 39.22308124183752 101.51217310340682 C 0.0 **** -0.24
27792 H 63.37861927177774 40.221997599726336 101.93765525263922 H 0.0 **** 0.06
27793 H 62.568719953272335 38.64529349788941 102.10097602340888 H 0.0 **** 0.06
27794 H 64.25037214309404 38.725863343610854 101.52330674310389 H 0.0 **** 0.06
27795 H 62.92470579282073 39.30073698834511 100.48429164518816 H 0.0 **** 0.06
27796 C 134.79253608753243 92.11845421693477 135.67523183592837 C 0.0 **** -0.24
27797 H 134.8412501879887 91.09631806160598 135.29821915181046 H 0.0 **** 0.06
27798 H 134.11354624866212 92.7022528299126 135.05340718814008 H 0.0 **** 0.06
27799 H 135.78604797705225 92.56425252438879 135.6471102260563 H 0.0 **** 0.06
27800 H 134.4263054195317 92.10898842084038 136.70230604763069 H 0.0 **** 0.06
27801 C 131.4551026927065 12.417422610384932 82.83525544808069 C 0.0 **** -0.24
27802 H 132.4780193451445 12.105490577558527 83.04618867849385 H 0.0 **** 0.06
27803 H 130.8624452745082 11.549429217463455 82.54830161437727 H 0.0 **** 0.06
27804 H 131.4572415063123 13.141921093201972 82.02093225246881 H 0.0 **** 0.06
27805 H 131.02431370246313 12.874694600226434 83.7256828987793 H 0.0 **** 0.06
27806 C 102.35019038900191 106.02372364150015 82.68226944679097 C 0.0 **** -0.24
27807 H 102.18752995614352 105.0462015862813 82.23084391507491 H 0.0 **** 0.06
27808 H 103.13567484661155 105.9515300446564 83.43418508355602 H 0.0 **** 0.06
27809 H 101.4271410716326 106.36426125014877 83.15265231337517 H 0.0 **** 0.06
27810 H 102.64835283066805 106.73507896251901 81.91146356702482 H 0.0 **** 0.06
27811 C 119.04947046109066 20.87176666090079 25.073363288571898 C 0.0 **** -0.24
27812 H 119.21771572794302 21.94810282251396 25.039364940470804 H 0.0 **** 0.06
27813 H 119.18821202303138 20.45230912491013 24.076565374557084 H 0.0 **** 0.06
27814 H 118.03342347879203 20.673281007832458 25.412936294105933 H 0.0 **** 0.06
27815 H 119.759926425365 20.41459048412591 25.76183489095471 H 0.0 **** 0.06
27816 C 99.03337930914331 120.99986731348136 1.6193035689261421 C 0.0 **** -0.24
27817 H 99.01149625807312 120.75344018452145 0.5571756332049631 H 0.0 **** 0.06
27818 H 100.04412438140439 120.86429668446138 2.0032981923274917 H 0.0 **** 0.06
27819 H 98.34889238789793 120.34427479977964 2.15752564472308 H 0.0 **** 0.06
27820 H 98.7270772379783 122.0369769012278 1.7581872144391184 H 0.0 **** 0.06
27821 C 132.45933756332036 114.72540700938718 63.262523440080514 C 0.0 **** -0.24
27822 H 132.3977017390567 114.03524554240614 62.42108712484669 H 0.0 **** 0.06
27823 H 133.40237923029983 114.57421921007186 63.788608601597375 H 0.0 **** 0.06
27824 H 131.62871531706477 114.54015306138665 63.94405743269708 H 0.0 **** 0.06
27825 H 132.4070369752781 115.75037130496831 62.896454181083314 H 0.0 **** 0.06
27826 C 58.95055824578819 6.076658335157305 108.16083535718538 C 0.0 **** -0.24
27827 H 58.793695632114094 5.316566704060534 108.92649308092398 H 0.0 **** 0.06
27828 H 58.56709173356734 5.714787261434481 107.2064598083514 H 0.0 **** 0.06
27829 H 60.015176219645895 6.285706241473406 108.0698665688313 H 0.0 **** 0.06
27830 H 58.42306318685539 6.988191764267015 108.44142341263542 H 0.0 **** 0.06
27831 C 63.62191006863996 114.12440204306566 107.82243988009219 C 0.0 **** -0.24
27832 H 62.597978423712206 114.21971891539536 107.4593494897677 H 0.0 **** 0.06
27833 H 63.90962173797833 115.04104407215945 108.3379302390149 H 0.0 **** 0.06
27834 H 64.29193433416707 113.95600432896842 106.97967207951143 H 0.0 **** 0.06
27835 H 63.684726489001704 113.28316976303861 108.5124110579369 H 0.0 **** 0.06
27836 C 98.51411211828793 21.80540525678026 99.53074521450228 C 0.0 **** -0.24
27837 H 99.17365234231818 22.038878046376965 98.69552907387904 H 0.0 **** 0.06
27838 H 97.57976624223 21.39300425091625 99.15036241248634 H 0.0 **** 0.06
27839 H 98.30704389075697 22.714337188341176 100.09587122031346 H 0.0 **** 0.06
27840 H 98.9963913703773 21.07546036823487 100.18030587055813 H 0.0 **** 0.06
27841 C 55.80238503844191 5.687214046236022 145.1333642517851 C 0.0 **** -0.24
27842 H 56.622829161769744 6.391769739829272 144.99400267700895 H 0.0 **** 0.06
27843 H 55.10783219475337 5.769361994555652 144.29638514361898 H 0.0 **** 0.06
27844 H 55.280605070382705 5.916001035055501 146.0626102228931 H 0.0 **** 0.06
27845 H 56.1981830864367 4.672795758596692 145.17954138421268 H 0.0 **** 0.06
27846 C 26.846038767724338 47.5483290123001 115.12820127724034 C 0.0 **** -0.24
27847 H 27.12022911725525 48.48697305837575 114.64747695954073 H 0.0 **** 0.06
27848 H 27.506779441611044 47.36926475118992 115.97646989804154 H 0.0 **** 0.06
27849 H 26.942438418485807 46.731791393269134 114.41285569299949 H 0.0 **** 0.06
27850 H 25.81441024187923 47.60669388512386 115.47696778237612 H 0.0 **** 0.06
27851 C 96.96260844693325 115.52670464337095 43.76577779349563 C 0.0 **** -0.24
27852 H 97.42580985775757 115.57404585441336 42.7805711503224 H 0.0 **** 0.06
27853 H 97.72075596790197 115.688018762746 44.5320851632261 H 0.0 **** 0.06
27854 H 96.50532079259582 114.54764312225976 43.90627834659139 H 0.0 **** 0.06
27855 H 96.19736320848861 116.29895368892423 43.843726690816794 H 0.0 **** 0.06
27856 C 132.77721380659347 88.26207202245635 66.93571803577044 C 0.0 **** -0.24
27857 H 133.20498299297583 87.86716965517513 67.8569316465138 H 0.0 **** 0.06
27858 H 132.56961655746284 87.44006190894194 66.25085918906422 H 0.0 **** 0.06
27859 H 133.48467015889867 88.95134836270083 66.47316901574115 H 0.0 **** 0.06
27860 H 131.85127126620557 88.78984265883818 67.16228684704225 H 0.0 **** 0.06
27861 C 132.92802741140267 0.9374005423775884 102.37059466221166 C 0.0 **** -0.24
27862 H 133.5404968636357 1.509338185297338 101.67282719150913 H 0.0 **** 0.06
27863 H 133.51375289057103 0.7017809005363915 103.25984153366716 H 0.0 **** 0.06
27864 H 132.6014910092681 0.01335140198639806 101.89437619912079 H 0.0 **** 0.06
27865 H 132.05659477345642 1.5273156422188663 102.65491004078865 H 0.0 **** 0.06
27866 C 138.12003130495953 35.51785941426729 9.468585230476279 C 0.0 **** -0.24
27867 H 137.82278287497547 34.61352396600893 10.000011317290443 H 0.0 **** 0.06
27868 H 138.42516025717572 36.278395795751806 10.187365888335968 H 0.0 **** 0.06
27869 H 137.27853540328647 35.8881723248636 8.881765021408391 H 0.0 **** 0.06
27870 H 138.95397202943047 35.291050234050005 8.8043003793873 H 0.0 **** 0.06
27871 C 120.34688741526041 139.04852349869907 119.8071658609625 C 0.0 **** -0.24
27872 H 120.89166150210416 138.2186179169721 120.25620903824594 H 0.0 **** 0.06
27873 H 119.29393328223112 138.98373189259735 120.08349101140115 H 0.0 **** 0.06
27874 H 120.44155713406194 139.00000280722278 118.72236713153134 H 0.0 **** 0.06
27875 H 120.75993255448397 139.99097976780675 120.16549915864451 H 0.0 **** 0.06
27876 C 27.716460992073706 40.370568767027805 95.55470171039144 C 0.0 **** -0.24
27877 H 27.907252661532794 39.4113470026098 96.03522123296682 H 0.0 **** 0.06
27878 H 26.727359031388033 40.72882922152718 95.84121119243207 H 0.0 **** 0.06
27879 H 27.759335902811358 40.24918955542108 94.4721816231152 H 0.0 **** 0.06
27880 H 28.470491552961647 41.09117655994757 95.87003674216675 H 0.0 **** 0.06
27881 C 139.70212829170512 97.90203435295238 4.484594291541356 C 0.0 **** -0.24
27882 H 139.71762277043632 97.1368516935801 5.261362184474251 H 0.0 **** 0.06
27883 H 138.82621664889479 97.75813725239247 3.8515853359804737 H 0.0 **** 0.06
27884 H 140.60524756848127 97.82296665161664 3.8789823774305887 H 0.0 **** 0.06
27885 H 139.65869960690958 98.88785740537732 4.946710856230766 H 0.0 **** 0.06
27886 C 42.10557050307425 69.34159234625301 98.40045344722296 C 0.0 **** -0.24
27887 H 42.87161414682869 69.69568710902637 97.71060133898243 H 0.0 **** 0.06
27888 H 41.26851268371176 68.93094131414682 97.8345410009598 H 0.0 **** 0.06
27889 H 41.75755580364472 70.17261359301388 99.01443013894493 H 0.0 **** 0.06
27890 H 42.52557766902561 68.56722111530492 99.04242624828441 H 0.0 **** 0.06
27891 C 118.10202305704964 138.8591542186462 126.79155648915736 C 0.0 **** -0.24
27892 H 117.9861096224128 137.94145749024955 126.21585809587808 H 0.0 **** 0.06
27893 H 118.89684280289056 138.7292903173109 127.52619234691139 H 0.0 **** 0.06
27894 H 117.16682116963075 139.08627483984247 127.3038870214962 H 0.0 **** 0.06
27895 H 118.35706745051634 139.67894954516453 126.12015060038948 H 0.0 **** 0.06
27896 C 72.20580202022401 132.3705907654915 33.61630561952822 C 0.0 **** -0.24
27897 H 71.83690266852048 132.41801656928993 32.59111977685561 H 0.0 **** 0.06
27898 H 72.33279951640185 131.3271861459877 33.907850482992444 H 0.0 **** 0.06
27899 H 71.487808970092 132.8494533501633 34.28255446790979 H 0.0 **** 0.06
27900 H 73.16306039498048 132.8860808253295 33.68159896889975 H 0.0 **** 0.06
27901 C 87.20251127376983 79.26081991913415 40.812443523507284 C 0.0 **** -0.24
27902 H 87.03139490857657 80.16917665475418 41.389655012830076 H 0.0 **** 0.06
27903 H 87.91067584300467 78.62227698287171 41.34138661847547 H 0.0 **** 0.06
27904 H 87.60799238894504 79.52281102369318 39.83563310999912 H 0.0 **** 0.06
27905 H 86.25883072637525 78.72970634965485 40.68354299418134 H 0.0 **** 0.06
27906 C 144.1371280380198 133.76413855137497 63.7382633554473 C 0.0 **** -0.24
27907 H 144.33650713374627 133.05775581991097 64.5434796404281 H 0.0 **** 0.06
27908 H 144.68035364855504 134.69082366845126 63.92452538882566 H 0.0 **** 0.06
27909 H 143.0679732213059 133.97322323518887 63.694439883610215 H 0.0 **** 0.06
27910 H 144.46223688110007 133.33582640083156 62.789732453855365 H 0.0 **** 0.06
27911 C 33.008589005996555 63.39351825441972 7.296003435488984 C 0.0 **** -0.24
27912 H 33.80843681737235 62.790777162714704 6.865287088161892 H 0.0 **** 0.06
27913 H 32.06336452717909 63.13450999011292 6.8201460505098055 H 0.0 **** 0.06
27914 H 33.22189310405611 64.45003845955438 7.131600445469388 H 0.0 **** 0.06
27915 H 32.94403009450548 63.19882811665778 8.366175739544275 H 0.0 **** 0.06
27916 C 31.74241242117114 70.76671679135166 119.48588500826763 C 0.0 **** -0.24
27917 H 32.11094759717446 71.25582068613767 120.38833952794987 H 0.0 **** 0.06
27918 H 32.331332973867475 71.09510031918455 118.6293888062422 H 0.0 **** 0.06
27919 H 30.697055178237818 71.03143383851318 119.33135036499034 H 0.0 **** 0.06
27920 H 31.831866286687656 69.68582539947886 119.59666733140422 H 0.0 **** 0.06
27921 C 85.82039112181616 76.32121147057644 111.71214484241203 C 0.0 **** -0.24
27922 H 85.47323900386795 75.46876446015152 112.29632753047026 H 0.0 **** 0.06
27923 H 86.3985360881301 76.9882518843025 112.35159646716018 H 0.0 **** 0.06
27924 H 84.96118866674306 76.85744284673197 111.30840237686407 H 0.0 **** 0.06
27925 H 86.4470381214027 75.9686499237367 110.89298931039455 H 0.0 **** 0.06
27926 C 37.45227102279338 118.41540623305674 55.949868046750254 C 0.0 **** -0.24
27927 H 38.31292616542959 118.43960408522652 56.617111643204126 H 0.0 **** 0.06
27928 H 37.76620282935704 118.07099894383343 54.96405955872464 H 0.0 **** 0.06
27929 H 37.02847443175111 119.41645695051422 55.86617316336611 H 0.0 **** 0.06
27930 H 36.70060130964205 117.73454326724745 56.350071980528426 H 0.0 **** 0.06
27931 C 91.02399888849223 137.49662780141594 60.06943198499073 C 0.0 **** -0.24
27932 H 90.50494549848236 138.30234190504035 60.58858924301154 H 0.0 **** 0.06
27933 H 90.5386052693234 137.30983106880876 59.11119874711818 H 0.0 **** 0.06
27934 H 90.99122076693209 136.59234066650862 60.67629624061993 H 0.0 **** 0.06
27935 H 92.0626409981455 137.7836829121132 59.901253843458676 H 0.0 **** 0.06
27936 C 5.8047448956902485 36.79214756141238 101.02281194718572 C 0.0 **** -0.24
27937 H 6.098375235186893 35.80954164906644 101.39112799360822 H 0.0 **** 0.06
27938 H 5.6310440128667665 37.45967167867118 101.86655387059861 H 0.0 **** 0.06
27939 H 4.891506272549805 36.70173916601583 100.4350055012599 H 0.0 **** 0.06
27940 H 6.60038447922085 37.19655249192021 100.39701389159725 H 0.0 **** 0.06
27941 C 134.51876833772548 55.09320613421124 77.92752234438419 C 0.0 **** -0.24
27942 H 135.1605313164433 54.223742003868125 78.0771298097028 H 0.0 **** 0.06
27943 H 133.47429987704984 54.79218589052064 78.01229480853905 H 0.0 **** 0.06
27944 H 134.69846087918586 55.51006889506101 76.93757798427959 H 0.0 **** 0.06
27945 H 134.74433396539817 55.844173910385706 78.68494195153178 H 0.0 **** 0.06
27946 C 54.12901904810846 57.90125219377228 97.12810553278183 C 0.0 **** -0.24
27947 H 54.71261204105187 58.81102435151348 96.98185641713113 H 0.0 **** 0.06
27948 H 54.79790908266813 57.08038766605705 97.39020002888171 H 0.0 **** 0.06
27949 H 53.59935632126357 57.65831942783382 96.20715876670016 H 0.0 **** 0.06
27950 H 53.40964062780668 58.05616369593503 97.9320371209827 H 0.0 **** 0.06
27951 C 89.9373262487648 125.28911463316959 129.05245708980428 C 0.0 **** -0.24
27952 H 91.01506978462942 125.37399466612283 128.91553331423586 H 0.0 **** 0.06
27953 H 89.50411023952569 126.28486454437726 129.14990413058578 H 0.0 **** 0.06
27954 H 89.73142190057968 124.7128791544848 129.95501955904683 H 0.0 **** 0.06
27955 H 89.50097257763707 124.78362309108957 128.19099805526668 H 0.0 **** 0.06
27956 C 74.22942464073034 144.36181860295105 25.425957124382705 C 0.0 **** -0.24
27957 H 73.62692910811754 143.53068867252887 25.79210198218722 H 0.0 **** 0.06
27958 H 73.5920750647883 145.06456004673413 24.888404412668976 H 0.0 **** 0.06
27959 H 75.00079620716025 143.98388768960973 24.75513224654378 H 0.0 **** 0.06
27960 H 74.6982217531222 144.86853283964427 26.270366924035812 H 0.0 **** 0.06
27961 C 90.77533712497325 142.3012767330104 42.92785705130521 C 0.0 **** -0.24
27962 H 90.13001109142715 141.61209592911757 42.383988512622466 H 0.0 **** 0.06
27963 H 90.25831300010725 143.25140928118708 43.06363300291147 H 0.0 **** 0.06
27964 H 91.6927184939724 142.46428507942207 42.36190598018797 H 0.0 **** 0.06
27965 H 91.01943279800736 141.87775670544153 43.90211060450966 H 0.0 **** 0.06
27966 C 104.06004380471752 55.93659680023575 119.47888646454527 C 0.0 **** -0.24
27967 H 104.9890090452257 55.68519969062318 119.99103877391269 H 0.0 **** 0.06
27968 H 103.87881279531805 55.21646185253262 118.68136038480378 H 0.0 **** 0.06
27969 H 104.13765855067884 56.93696682935612 119.05605607186493 H 0.0 **** 0.06
27970 H 103.23485976787065 55.906391032668836 120.19122617586225 H 0.0 **** 0.06
27971 C 24.346803945937467 131.9410201557455 41.59402645978025 C 0.0 **** -0.24
27972 H 23.48727958601009 131.37848602099893 41.22916740599442 H 0.0 **** 0.06
27973 H 24.55942371921884 132.7622457801792 40.90813121399077 H 0.0 **** 0.06
27974 H 25.213651770132458 131.28224427590666 41.6524226723476 H 0.0 **** 0.06
27975 H 24.126593953788642 132.34132795344632 42.58308615148894 H 0.0 **** 0.06
27976 C 107.29019365369534 128.64535314397185 62.54174087819672 C 0.0 **** -0.24
27977 H 107.23043579971154 128.93056632495166 61.491540266314544 H 0.0 **** 0.06
27978 H 108.14028988519131 127.9803412032486 62.68998513258613 H 0.0 **** 0.06
27979 H 106.37212367232404 128.13275566844646 62.83148610684624 H 0.0 **** 0.06
27980 H 107.41568223317911 129.53939106672388 63.15342850602201 H 0.0 **** 0.06
27981 C 134.36632733976015 123.88372818441331 34.174908056781476 C 0.0 **** -0.24
27982 H 135.06788047151198 124.42971328264494 33.54445952080329 H 0.0 **** 0.06
27983 H 133.58634361360592 123.44320184175407 33.55271203564945 H 0.0 **** 0.06
27984 H 133.91536583878556 124.56729112653403 34.8933029792712 H 0.0 **** 0.06
27985 H 134.89559643228498 123.09393103917313 34.70731820067681 H 0.0 **** 0.06
27986 C 46.40210520159461 101.64536936577866 48.170264808273586 C 0.0 **** -0.24
27987 H 46.02536625705619 101.33401310563998 47.19641322479089 H 0.0 **** 0.06
27988 H 45.57124137373188 101.98824870521847 48.78805443140246 H 0.0 **** 0.06
27989 H 47.11880399265638 102.45631623386475 48.04054234598338 H 0.0 **** 0.06
27990 H 46.89177592290295 100.80087379135179 48.656662555369394 H 0.0 **** 0.06
27991 C 97.07211302532588 7.513771926258585 8.833536844705833 C 0.0 **** -0.24
27992 H 97.26139912588471 8.064094849979426 9.755176876549598 H 0.0 **** 0.06
27993 H 96.13396918848596 6.9653972397666735 8.925260837286686 H 0.0 **** 0.06
27994 H 97.88657681210516 6.811805583178398 8.655778941047345 H 0.0 **** 0.06
27995 H 97.00528969923397 8.212240719220176 8.00019308174447 H 0.0 **** 0.06
27996 C 102.60677646218491 49.11702502943787 20.44173100129288 C 0.0 **** -0.24
27997 H 101.70477645396585 48.50585762623794 20.45466358336597 H 0.0 **** 0.06
27998 H 102.72180698207575 49.574069888219924 19.458722411707242 H 0.0 **** 0.06
27999 H 103.47336846154255 48.49182468911526 20.656350966627457 H 0.0 **** 0.06
28000 H 102.52654529207757 49.89853385819556 21.198109781230272 H 0.0 **** 0.06
28001 C 129.4668910027584 103.9710645204601 54.02861123193577 C 0.0 **** -0.24
28002 H 129.23565397677197 104.70035544099491 53.25357768673217 H 0.0 **** 0.06
28003 H 130.5243359434721 103.71002879056557 53.97745970850866 H 0.0 **** 0.06
28004 H 128.86458997697846 103.0754979419157 53.877393324917534 H 0.0 **** 0.06
28005 H 129.24466958591756 104.39674703365007 55.00672569408087 H 0.0 **** 0.06
28006 C 66.72248655055586 10.956688459624822 144.46625414106617 C 0.0 **** -0.24
28007 H 66.23978094764628 11.829148941005428 144.90708622273687 H 0.0 **** 0.06
28008 H 66.00487958948418 10.138014175246056 144.40547095264802 H 0.0 **** 0.06
28009 H 67.56586630292395 10.65575770544109 145.08679432446277 H 0.0 **** 0.06
28010 H 67.07709501023997 11.204593274661939 143.46580527210503 H 0.0 **** 0.06
28011 C 0.9621520887949195 114.47049996735738 77.85013737737441 C 0.0 **** -0.24
28012 H 0.28868308218148897 114.08110753842244 78.61286988580328 H 0.0 **** 0.06
28013 H 0.7595203729872289 113.97628348710323 76.89966571489231 H 0.0 **** 0.06
28014 H 1.9937469750091488 114.28049136780653 78.14622285987384 H 0.0 **** 0.06
28015 H 0.8066579250017938 115.54411747609727 77.74179104892855 H 0.0 **** 0.06
28016 C 140.86577262388883 6.283769076710456 93.3952198702898 C 0.0 **** -0.24
28017 H 140.09579705104858 5.693173162776958 93.8909102457474 H 0.0 **** 0.06
28018 H 141.66090053837064 5.624822236025551 93.04628927389804 H 0.0 **** 0.06
28019 H 141.2769766629463 7.008079635558175 94.09889833585869 H 0.0 **** 0.06
28020 H 140.4299713203678 6.809347002518223 92.54603559831479 H 0.0 **** 0.06
28021 C 3.8070288441449804 21.61616292017476 63.342552533675914 C 0.0 **** -0.24
28022 H 3.26930939963799 21.301240085271786 64.23623326784394 H 0.0 **** 0.06
28023 H 4.751238231713302 22.07915948090198 63.63119550011257 H 0.0 **** 0.06
28024 H 3.2026686623879925 22.33542285233699 62.789683811860854 H 0.0 **** 0.06
28025 H 4.004573831654625 20.748059768903204 62.71254788641134 H 0.0 **** 0.06
28026 C 79.85247442382314 101.81461317571406 88.57686069829063 C 0.0 **** -0.24
28027 H 79.05410875531226 101.31625906985911 89.12632527534936 H 0.0 **** 0.06
28028 H 79.72308648153103 102.89502194619433 88.65033588570827 H 0.0 **** 0.06
28029 H 79.81576160743435 101.51506587415066 87.53020869683365 H 0.0 **** 0.06
28030 H 80.81576392408675 101.53347586484574 89.00222764433448 H 0.0 **** 0.06
28031 C 67.9486282613786 54.050339374657895 60.69333935223338 C 0.0 **** -0.24
28032 H 68.47540435330163 53.21477872971225 60.234040768709946 H 0.0 **** 0.06
28033 H 68.65883164642725 54.67035880293366 61.24109111104892 H 0.0 **** 0.06
28034 H 67.19242514358935 53.670789469390286 61.37944761399669 H 0.0 **** 0.06
28035 H 67.46876122781576 54.64733878745204 59.91754025003095 H 0.0 **** 0.06
28036 C 78.89137724823541 56.01062620095749 105.26532187093511 C 0.0 **** -0.24
28037 H 78.27282238428654 55.47904526467616 104.54247993328158 H 0.0 **** 0.06
28038 H 79.44396663206646 56.80178599647979 104.75695476128928 H 0.0 **** 0.06
28039 H 79.59253979305458 55.31554503715208 105.72559363087873 H 0.0 **** 0.06
28040 H 78.255122898325 56.44860107284691 106.03492913876175 H 0.0 **** 0.06
28041 C 142.547788067862 93.76103705639609 53.08995686650164 C 0.0 **** -0.24
28042 H 142.94859362006753 93.81747431087484 52.0785071209273 H 0.0 **** 0.06
28043 H 143.36880873144605 93.78107235367946 53.807473142154976 H 0.0 **** 0.06
28044 H 141.9858721712638 92.83423288579529 53.20604069310477 H 0.0 **** 0.06
28045 H 141.8890331888153 94.61055648319427 53.26787992320834 H 0.0 **** 0.06
28046 C 66.52679017605712 9.94054282344652 133.6444751666923 C 0.0 **** -0.24
28047 H 66.49473357037415 10.240714136139985 134.69174420795105 H 0.0 **** 0.06
28048 H 65.56000506829562 10.136365200207791 133.1813531283861 H 0.0 **** 0.06
28049 H 66.75377912877241 8.876512200856638 133.578712396669 H 0.0 **** 0.06
28050 H 67.30021674260581 10.509914370850481 133.1280254335565 H 0.0 **** 0.06
28051 C 138.15138932570954 143.51445227529328 83.00204312926125 C 0.0 **** -0.24
28052 H 137.5350839517071 143.26907342777423 82.13680684437331 H 0.0 **** 0.06
28053 H 137.53068255331792 143.52160188907473 83.89912504787912 H 0.0 **** 0.06
28054 H 138.5998905179463 144.49725664125677 82.86247921271129 H 0.0 **** 0.06
28055 H 138.93731082855854 142.76729789478355 83.11056317997821 H 0.0 **** 0.06
28056 C 91.62979817247417 12.892270023530102 96.7223686937981 C 0.0 **** -0.24
28057 H 91.37847241806675 13.95175124542476 96.66304037564385 H 0.0 **** 0.06
28058 H 92.66134945724272 12.781270449083877 97.05647486752514 H 0.0 **** 0.06
28059 H 91.51477003637352 12.437326845908842 95.73857241020596 H 0.0 **** 0.06
28060 H 90.96225266499418 12.401410291407956 97.43024198420028 H 0.0 **** 0.06
28061 C 27.165258744711508 4.967111760677639 54.91272194186425 C 0.0 **** -0.24
28062 H 27.16654523849749 5.570264059510279 54.00465720974459 H 0.0 **** 0.06
28063 H 27.962425084659657 5.3061102022199265 55.57508500236368 H 0.0 **** 0.06
28064 H 27.326969628008698 3.921137301974987 54.6537067233475 H 0.0 **** 0.06
28065 H 26.204592518869703 5.072484152252883 55.41684787759162 H 0.0 **** 0.06
28066 C 11.541707448907289 86.41863280200512 123.7939080453246 C 0.0 **** -0.24
28067 H 11.010848488440104 86.55149014589831 122.85145190921119 H 0.0 **** 0.06
28068 H 11.272077260994536 85.45643246588152 124.22915850850507 H 0.0 **** 0.06
28069 H 11.266490488825184 87.2188809936567 124.48109387505164 H 0.0 **** 0.06
28070 H 12.615433951391083 86.44856916950685 123.61275605775015 H 0.0 **** 0.06
28071 C 69.25214261979667 114.64294455841092 119.63232535287672 C 0.0 **** -0.24
28072 H 69.7776378610624 115.46290146859504 119.14257712865903 H 0.0 **** 0.06
28073 H 69.084439122401 113.83936539510181 118.91478442090916 H 0.0 **** 0.06
28074 H 68.29401933683894 115.00060701336953 120.00968625316763 H 0.0 **** 0.06
28075 H 69.85305851296275 114.27046494630771 120.46178114602039 H 0.0 **** 0.06
28076 C 138.60070180633934 127.78564847718513 65.36748602101089 C 0.0 **** -0.24
28077 H 138.63807357346425 128.84214312068585 65.09942749415426 H 0.0 **** 0.06
28078 H 137.67194492376223 127.5799181864793 65.90042938919538 H 0.0 **** 0.06
28079 H 139.44910692284816 127.54352047614357 66.00674468592943 H 0.0 **** 0.06
28080 H 138.64320116053855 127.1799010406331 64.46149219755584 H 0.0 **** 0.06
28081 C 142.9637041600609 139.61528346192708 52.11254975353938 C 0.0 **** -0.24
28082 H 143.30130699041908 138.7861728632915 52.734894406651904 H 0.0 **** 0.06
28083 H 143.17322673069356 139.39220305867823 51.06647503571196 H 0.0 **** 0.06
28084 H 143.49025134895913 140.5248782632701 52.40270020109 H 0.0 **** 0.06
28085 H 141.89130560501414 139.75727714989824 52.24624727400129 H 0.0 **** 0.06
28086 C 23.655183168204047 113.99055414884351 129.2563911038805 C 0.0 **** -0.24
28087 H 23.467807493314524 113.0241714297401 128.7894268144443 H 0.0 **** 0.06
28088 H 23.904368060946666 113.84444740230283 130.3073947203979 H 0.0 **** 0.06
28089 H 22.76197055557327 114.61178120865908 129.1772384106573 H 0.0 **** 0.06
28090 H 24.485703697230207 114.48320287705481 128.75095785373938 H 0.0 **** 0.06
28091 C 110.43376045462828 131.98066246693705 124.40370747963061 C 0.0 **** -0.24
28092 H 109.43723372057586 131.63900127605982 124.12366462467332 H 0.0 **** 0.06
28093 H 110.40245762524178 133.04677462129933 124.6268170286852 H 0.0 **** 0.06
28094 H 111.12338691415881 131.801065753332 123.57932393138775 H 0.0 **** 0.06
28095 H 110.7706361536848 131.43314969504232 125.28394234769691 H 0.0 **** 0.06
28096 C 39.155927113861765 47.888095058461644 72.669023495326 C 0.0 **** -0.24
28097 H 39.27013658062111 46.99937294749819 72.04734901611235 H 0.0 **** 0.06
28098 H 38.284802403428046 48.453336990744646 72.33681840787486 H 0.0 **** 0.06
28099 H 40.04709551362424 48.50842825563264 72.58238381492109 H 0.0 **** 0.06
28100 H 39.020760551269746 47.58896300580011 73.70813844852944 H 0.0 **** 0.06
28101 C 99.4689712120373 32.43284989498804 92.22857846574328 C 0.0 **** -0.24
28102 H 99.19124788436571 32.258739393055286 91.1893613792474 H 0.0 **** 0.06
28103 H 100.55341177384494 32.50063909590147 92.30871673175028 H 0.0 **** 0.06
28104 H 99.11009387864746 31.60662843085276 92.84316295458092 H 0.0 **** 0.06
28105 H 99.01986920811945 33.36385538865319 92.57328271804862 H 0.0 **** 0.06
28106 C 46.66129101217092 72.86763134230895 120.16548516083377 C 0.0 **** -0.24
28107 H 47.49329228178564 73.56245412215671 120.28030716294133 H 0.0 **** 0.06
28108 H 45.87362973862443 73.33915957767593 119.57778733083701 H 0.0 **** 0.06
28109 H 46.271795607474246 72.60205549515544 121.1489076287251 H 0.0 **** 0.06
28110 H 47.00605014650267 71.96820381717055 119.65595190934549 H 0.0 **** 0.06
28111 C 28.955309643961726 31.13876319012516 142.11318842313685 C 0.0 **** -0.24
28112 H 29.247342631165132 30.08870773404226 142.08844599300193 H 0.0 **** 0.06
28113 H 29.602742620980223 31.678718607572677 142.80373933445858 H 0.0 **** 0.06
28114 H 27.920564992773677 31.22057260471277 142.44433276749174 H 0.0 **** 0.06
28115 H 29.05233363228411 31.56548889929212 141.11465277920752 H 0.0 **** 0.06
28116 C 100.4824221823418 26.349603659977014 51.33584291370278 C 0.0 **** -0.24
28117 H 99.43961878514848 26.187211869185205 51.06397187630105 H 0.0 **** 0.06
28118 H 100.87282034919808 27.20663072330239 50.78637152042597 H 0.0 **** 0.06
28119 H 101.06460059182423 25.462627371602977 51.088583530159326 H 0.0 **** 0.06
28120 H 100.5525494998499 26.54273048718499 52.406762671338896 H 0.0 **** 0.06
28121 C 32.84136756408398 6.100098663346753 123.3242985387671 C 0.0 **** -0.24
28122 H 33.76419965328021 6.178568891664366 122.74994217238711 H 0.0 **** 0.06
28123 H 33.03804278670639 6.364016674542086 124.36376670484528 H 0.0 **** 0.06
28124 H 32.46821993301081 5.077039968125526 123.2734294489619 H 0.0 **** 0.06
28125 H 32.09697279141523 6.779856792203695 122.91119909527238 H 0.0 **** 0.06
28126 C 29.559902089552885 57.002090788157815 122.05022208941818 C 0.0 **** -0.24
28127 H 29.587017977506868 55.9466301225315 121.77996777615363 H 0.0 **** 0.06
28128 H 28.763007285333885 57.1712465348016 122.77606642931363 H 0.0 **** 0.06
28129 H 29.37136773318202 57.60007693037632 121.15836263525432 H 0.0 **** 0.06
28130 H 30.515824127460327 57.29049381621357 122.48596695972401 H 0.0 **** 0.06
28131 C 139.5104554567819 117.308508329215 21.166583234432636 C 0.0 **** -0.24
28132 H 140.51559483683246 116.91516570560431 21.31663082318137 H 0.0 **** 0.06
28133 H 138.92035482049403 116.5909950863229 20.596101070948265 H 0.0 **** 0.06
28134 H 139.5657194626819 118.25067843085155 20.620964960989966 H 0.0 **** 0.06
28135 H 139.03853493865404 117.47750406498206 22.13551483646215 H 0.0 **** 0.06
28136 C 89.39453070805705 109.42738262129629 120.45691930065841 C 0.0 **** -0.24
28137 H 89.75712579204462 110.45146464592861 120.54695661559661 H 0.0 **** 0.06
28138 H 89.0460569807853 109.07988156867302 121.43008476759 H 0.0 **** 0.06
28139 H 90.20326457847624 108.78539981254985 120.10968387891772 H 0.0 **** 0.06
28140 H 88.5715162007791 109.39496634583466 119.742744799954 H 0.0 **** 0.06
28141 C 88.83619556365022 135.527290142692 110.09612968374752 C 0.0 **** -0.24
28142 H 89.62201969443356 136.18264087742517 110.47337867263299 H 0.0 **** 0.06
28143 H 88.53647598788677 135.8561793752321 109.10064337849393 H 0.0 **** 0.06
28144 H 87.97769214873301 135.56654340749986 110.76590944131227 H 0.0 **** 0.06
28145 H 89.21008068918593 134.50502499185998 110.04405525981916 H 0.0 **** 0.06
28146 C 4.255190144427985 15.183926149963057 74.00158465282144 C 0.0 **** -0.24
28147 H 4.289565561354266 16.09812629580206 73.40845958306376 H 0.0 **** 0.06
28148 H 3.4166226664747796 14.570517002371055 73.67363091872325 H 0.0 **** 0.06
28149 H 4.13090776230797 15.438800535591021 75.05358740491951 H 0.0 **** 0.06
28150 H 5.184845768217343 14.630168628794038 73.86893872268595 H 0.0 **** 0.06
28151 C 110.70069226004263 102.87370415732222 118.49067667022767 C 0.0 **** -0.24
28152 H 110.52535507596777 101.92358552616045 117.98653350173088 H 0.0 **** 0.06
28153 H 109.77663805671516 103.21177746991913 118.95910824368356 H 0.0 **** 0.06
28154 H 111.03260698013897 103.61516435530257 117.76315942762444 H 0.0 **** 0.06
28155 H 111.4685951034963 102.74378828931196 119.25315222970205 H 0.0 **** 0.06
28156 C 102.21460890667213 24.372358004742722 74.757687402829 C 0.0 **** -0.24
28157 H 102.42245932628101 24.39431309231722 75.82750845231647 H 0.0 **** 0.06
28158 H 101.38547264566616 23.69069865182948 74.56316602854181 H 0.0 **** 0.06
28159 H 103.09991520974722 24.030722338142482 74.2217819084728 H 0.0 **** 0.06
28160 H 101.94840545565268 25.374388245038233 74.41916402276588 H 0.0 **** 0.06
28161 C 86.12582703900061 15.072809487384461 124.25724855045112 C 0.0 **** -0.24
28162 H 85.48656029761676 15.878449407154392 123.89602389215415 H 0.0 **** 0.06
28163 H 86.70093795219124 14.665870448922703 123.42511996485771 H 0.0 **** 0.06
28164 H 85.50917861011567 14.2872372255585 124.6927330920885 H 0.0 **** 0.06
28165 H 86.8066102075344 15.461172107950802 125.01423640683967 H 0.0 **** 0.06
28166 C 114.45168491123223 49.9135812396523 56.93509847703834 C 0.0 **** -0.24
28167 H 114.64086648799434 49.47828576291269 55.95368057895442 H 0.0 **** 0.06
28168 H 114.88692087562526 50.91261610895501 56.978652331417294 H 0.0 **** 0.06
28169 H 114.90298479658424 49.286353644949855 57.703870129784804 H 0.0 **** 0.06
28170 H 113.37681566668374 49.97735184962218 57.10214122129773 H 0.0 **** 0.06
28171 C 85.94134976470212 110.07978934415779 1.2957319116468575 C 0.0 **** -0.24
28172 H 86.73790846052106 109.78102664931247 0.6156878610909331 H 0.0 **** 0.06
28173 H 85.3103483230635 109.2187261961274 1.5163839905693592 H 0.0 **** 0.06
28174 H 85.34096372945515 110.86222398673313 0.8315977343115613 H 0.0 **** 0.06
28175 H 86.37676320487215 110.45835325514086 2.2213276464384286 H 0.0 **** 0.06
28176 C 97.99873634545861 46.85399583135177 46.31096520986772 C 0.0 **** -0.24
28177 H 98.65963120309422 46.55932118383379 45.49527239171847 H 0.0 **** 0.06
28178 H 96.97659598267201 46.9323694309079 45.94020711355192 H 0.0 **** 0.06
28179 H 98.31751365112828 47.81805491601182 46.70612842543059 H 0.0 **** 0.06
28180 H 98.04191956337165 46.10476082618737 47.1016984325864 H 0.0 **** 0.06
28181 C 90.90500579547648 125.11722982665565 58.84332739591994 C 0.0 **** -0.24
28182 H 91.75661221485873 124.56573296800468 58.444845751751274 H 0.0 **** 0.06
28183 H 90.78015987547238 126.04516628254717 58.28490430954659 H 0.0 **** 0.06
28184 H 91.08008834543435 125.34642402110542 59.89441683678595 H 0.0 **** 0.06
28185 H 90.00403250726654 124.51179760509137 58.748692209459165 H 0.0 **** 0.06
28186 C 71.82386375443689 117.70606542931593 120.12540972988575 C 0.0 **** -0.24
28187 H 72.66399622882798 117.20726057330573 120.60724266802293 H 0.0 **** 0.06
28188 H 71.91384878508359 118.78330389411336 120.26074939975143 H 0.0 **** 0.06
28189 H 70.89181951160491 117.35937257698284 120.5724595263469 H 0.0 **** 0.06
28190 H 71.82520227113734 117.47199940438908 119.06068994773136 H 0.0 **** 0.06
28191 C 142.34460685942105 48.40503171606943 78.79207244101755 C 0.0 **** -0.24
28192 H 141.32411808091544 48.15909207218496 78.49717368967467 H 0.0 **** 0.06
28193 H 142.9085172102239 47.48495743703387 78.95251691301686 H 0.0 **** 0.06
28194 H 142.32693524084465 48.986152354916015 79.7138681867028 H 0.0 **** 0.06
28195 H 142.82025360298474 48.98932924006422 78.00389764540708 H 0.0 **** 0.06
28196 C 143.88494448737688 84.80330698478986 101.6135594519128 C 0.0 **** -0.24
28197 H 144.71816533172498 84.16221033056527 101.32614165357987 H 0.0 **** 0.06
28198 H 144.0767588118289 85.22878099572787 102.59868991846781 H 0.0 **** 0.06
28199 H 142.96867435052837 84.21365364720174 101.6447183839064 H 0.0 **** 0.06
28200 H 143.77536741149083 85.60570544353808 100.88444118553008 H 0.0 **** 0.06
28201 C 10.311415832961494 57.749569204564565 90.21783847998051 C 0.0 **** -0.24
28202 H 11.257474593120357 58.026398129507385 89.75057351460583 H 0.0 **** 0.06
28203 H 10.42770016615519 56.79784618024131 90.73666325931845 H 0.0 **** 0.06
28204 H 9.542535523790313 57.65566785104588 89.45186560739876 H 0.0 **** 0.06
28205 H 10.021824913050736 58.52035829925342 90.93206475144018 H 0.0 **** 0.06
28206 C 57.63442260900783 3.854252357961723 113.76675126886504 C 0.0 **** -0.24
28207 H 58.358460264145606 3.8039940533529553 112.95360892780117 H 0.0 **** 0.06
28208 H 56.630144042789 3.709441235632095 113.36739649272651 H 0.0 **** 0.06
28209 H 57.696215536347864 4.8298488977281195 114.24839003335579 H 0.0 **** 0.06
28210 H 57.85194344343185 3.073749027828857 114.49534244478168 H 0.0 **** 0.06
28211 C 43.051023093450254 47.69055346827447 114.68964007567806 C 0.0 **** -0.24
28212 H 42.93481790360727 47.11145539227678 113.77265003227294 H 0.0 **** 0.06
28213 H 43.82134196034494 48.4480281386562 114.5447509262419 H 0.0 **** 0.06
28214 H 43.342315145035826 47.02636735099817 115.50319254984353 H 0.0 **** 0.06
28215 H 42.106153682260725 48.17395636041542 114.93515234883657 H 0.0 **** 0.06
28216 C 6.981978202811799 134.23593415929108 117.25889355000747 C 0.0 **** -0.24
28217 H 6.86922381127194 133.15665438859708 117.157624069992 H 0.0 **** 0.06
28218 H 7.585544491737451 134.6164624230607 116.43399602000734 H 0.0 **** 0.06
28219 H 7.473853661558849 134.46328398873715 118.20462896863533 H 0.0 **** 0.06
28220 H 5.998934028850012 134.70724177328304 117.23795988667122 H 0.0 **** 0.06
28221 C 117.22079633455589 63.88080788328443 69.53392448073953 C 0.0 **** -0.24
28222 H 117.91784717292695 63.5908418068299 68.74749093980128 H 0.0 **** 0.06
28223 H 116.4357111521315 64.50790451310289 69.1104141413997 H 0.0 **** 0.06
28224 H 117.75490150975087 64.43731013636364 70.30412043197754 H 0.0 **** 0.06
28225 H 116.77613663840488 62.98810939396148 69.97221091466628 H 0.0 **** 0.06
28226 C 48.28941712294716 4.402464291160015 28.96328531446214 C 0.0 **** -0.24
28227 H 49.12718571324655 5.086239399765333 29.103186438776753 H 0.0 **** 0.06
28228 H 48.04002797448118 4.346105929711513 27.902968969499128 H 0.0 **** 0.06
28229 H 47.42652057559309 4.767286586283092 29.52048558401968 H 0.0 **** 0.06
28230 H 48.56407674816097 3.412197661283699 29.325456476370718 H 0.0 **** 0.06
28231 C 141.63150587481007 10.644811805169269 10.269484922154192 C 0.0 **** -0.24
28232 H 140.59105556323544 10.9006167397568 10.07150552869868 H 0.0 **** 0.06
28233 H 141.98482539240342 9.947606700060533 9.510135047695968 H 0.0 **** 0.06
28234 H 141.71096597784873 10.181831119015499 11.253356304704397 H 0.0 **** 0.06
28235 H 142.2395558517756 11.5490142187152 10.243850741350371 H 0.0 **** 0.06
28236 C 41.05393783692034 29.56190732979121 64.91052430756912 C 0.0 **** -0.24
28237 H 40.14414105112061 29.25760398495939 64.39272493102771 H 0.0 **** 0.06
28238 H 41.11631318657123 29.045787581558727 65.86820671218703 H 0.0 **** 0.06
28239 H 41.03244200100235 30.638434570044183 65.07891050075142 H 0.0 **** 0.06
28240 H 41.92088665433171 29.30582840702712 64.30190192242964 H 0.0 **** 0.06
28241 C 56.02908817140913 1.3229440882335268 127.6811967688993 C 0.0 **** -0.24
28242 H 55.01397453878873 1.3172428448474989 127.28501792489052 H 0.0 **** 0.06
28243 H 56.73907763913921 1.4332899706032833 126.86053258033505 H 0.0 **** 0.06
28244 H 56.22094525461375 0.3850459494791778 128.20284689903687 H 0.0 **** 0.06
28245 H 56.14289122829797 2.155001257973737 128.37585899968056 H 0.0 **** 0.06
28246 C 128.14649712222698 66.32816441433584 141.1356803501162 C 0.0 **** -0.24
28247 H 127.8237216250181 65.32207616987273 141.40506549614338 H 0.0 **** 0.06
28248 H 128.42918505630618 66.34885103875189 140.08292752303828 H 0.0 **** 0.06
28249 H 129.00227067669775 66.61039158178556 141.7479223698621 H 0.0 **** 0.06
28250 H 127.32925531070059 67.0294935984067 141.30638807636575 H 0.0 **** 0.06
28251 C 23.85175079759358 37.09040179166337 57.0805040674157 C 0.0 **** -0.24
28252 H 23.371390556599295 37.19104601993709 58.053844029481525 H 0.0 **** 0.06
28253 H 23.898208712609915 36.037070326658664 56.80573263069624 H 0.0 **** 0.06
28254 H 24.86073389054792 37.499597985119976 57.13015770103422 H 0.0 **** 0.06
28255 H 23.274688247974268 37.63664464537658 56.33386326496097 H 0.0 **** 0.06
28256 C 22.09959090646406 26.000589825068403 77.83446915162074 C 0.0 **** -0.24
28257 H 21.99083424521541 25.969248297486843 76.75056390925737 H 0.0 **** 0.06
28258 H 21.895865392140294 27.010615001982046 78.1899209047543 H 0.0 **** 0.06
28259 H 23.116716327040166 25.71716679549246 78.1048783911259 H 0.0 **** 0.06
28260 H 21.394263770738974 25.304587690860302 78.29028120245381 H 0.0 **** 0.06
28261 C 14.53562128767578 60.67817608983202 4.265081863415389 C 0.0 **** -0.24
28262 H 15.621078583919655 60.70251453677862 4.359739033942134 H 0.0 **** 0.06
28263 H 14.233608673750211 61.26340358899881 3.396462812265554 H 0.0 **** 0.06
28264 H 14.083751547778036 61.101109669867355 5.162177070156815 H 0.0 **** 0.06
28265 H 14.204418753701418 59.64748159568913 4.143214787595554 H 0.0 **** 0.06
28266 C 4.510507069203015 80.64337940307145 1.877093544209373 C 0.0 **** -0.24
28267 H 4.110841965101372 81.28064948022109 2.6655816709537987 H 0.0 **** 0.06
28268 H 4.983884885927353 79.76777148638294 2.322781969658763 H 0.0 **** 0.06
28269 H 5.2471923301052925 81.20004535943221 1.2987418425150565 H 0.0 **** 0.06
28270 H 3.700033613893652 80.32428376664927 1.221905293933844 H 0.0 **** 0.06
28271 C 101.11973917962223 114.1202251238484 9.421782731764239 C 0.0 **** -0.24
28272 H 102.11715436871118 114.00306263964791 9.847239960812118 H 0.0 **** 0.06
28273 H 100.37894248393542 114.10134702767937 10.221921360011152 H 0.0 **** 0.06
28274 H 100.92449013703347 113.30594268024555 8.725166813386664 H 0.0 **** 0.06
28275 H 101.06124359294152 115.07245975502451 8.89424753309811 H 0.0 **** 0.06
28276 C 134.66679189451344 11.56941099239382 88.95732416931511 C 0.0 **** -0.24
28277 H 134.44715981526068 10.765294365594492 89.65961406282867 H 0.0 **** 0.06
28278 H 135.5366751740258 11.299255632435283 88.3582206057055 H 0.0 **** 0.06
28279 H 134.87605314568063 12.48672185653912 89.50830187785735 H 0.0 **** 0.06
28280 H 133.8093259097953 11.725541508021962 88.3035098228161 H 0.0 **** 0.06
28281 C 88.52356980912792 78.8438696836771 109.59296241329297 C 0.0 **** -0.24
28282 H 88.46875115562047 79.54679915813563 110.42473401836487 H 0.0 **** 0.06
28283 H 88.18091444833892 77.86363094795632 109.92263523815409 H 0.0 **** 0.06
28284 H 89.55498167957143 78.77210426553563 109.24641340321374 H 0.0 **** 0.06
28285 H 87.89017853363478 79.19605633560292 108.77793541292748 H 0.0 **** 0.06
28286 C 57.52362691831857 128.5379253792452 122.91519129344569 C 0.0 **** -0.24
28287 H 58.29106616865698 128.62409761228028 123.6846744035768 H 0.0 **** 0.06
28288 H 56.84845015418793 127.71914029910678 123.16599654267094 H 0.0 **** 0.06
28289 H 57.99470464056901 128.33875613803568 121.95248661306145 H 0.0 **** 0.06
28290 H 56.960286709860355 129.4697074675581 122.85760761447357 H 0.0 **** 0.06
28291 C 17.46683149705524 125.8821602272084 144.04811179575108 C 0.0 **** -0.24
28292 H 16.573500663834608 125.26077070441593 143.98413534227493 H 0.0 **** 0.06
28293 H 17.228990769795303 126.89515303487067 143.72195493146202 H 0.0 **** 0.06
28294 H 18.24417743301086 125.46765135644361 143.40646424845792 H 0.0 **** 0.06
28295 H 17.819608894545354 125.90501110511153 145.07894486627293 H 0.0 **** 0.06
28296 C 76.25344934263723 64.49838854796073 92.19745461960179 C 0.0 **** -0.24
28297 H 76.7170054060598 65.31887062767768 91.6492768656305 H 0.0 **** 0.06
28298 H 76.38294157841284 64.65871483194925 93.26780089089172 H 0.0 **** 0.06
28299 H 76.72553924984322 63.55788569901466 91.91183871340007 H 0.0 **** 0.06
28300 H 75.19051684942991 64.45836529617984 91.96066668888469 H 0.0 **** 0.06
28301 C 19.57743303499859 70.61778594632379 59.26476680764695 C 0.0 **** -0.24
28302 H 20.51378004850315 70.61763886644152 58.70602520226062 H 0.0 **** 0.06
28303 H 19.07164257667793 71.57344072746123 59.12651394924421 H 0.0 **** 0.06
28304 H 19.78657351902129 70.46679843120613 60.32374032880263 H 0.0 **** 0.06
28305 H 18.93856406649516 69.81211930202653 58.90279221815027 H 0.0 **** 0.06
28306 C 38.473801046027546 34.93115548824164 130.11753909570768 C 0.0 **** -0.24
28307 H 37.55209810663999 34.6358010149271 129.61644897154005 H 0.0 **** 0.06
28308 H 38.53297303877062 36.01907184697916 130.15554680289367 H 0.0 **** 0.06
28309 H 39.32822081937991 34.539265404652156 129.56545583838482 H 0.0 **** 0.06
28310 H 38.480314015078335 34.53019225747573 131.13116820540543 H 0.0 **** 0.06
28311 C 9.37678266456453 58.526398188855154 37.635853867343315 C 0.0 **** -0.24
28312 H 9.553537426083551 59.59822964716358 37.55034396151379 H 0.0 **** 0.06
28313 H 10.251546957746939 58.048264327998396 38.07662289855898 H 0.0 **** 0.06
28314 H 9.193158736441603 58.10824336210126 36.64605505053433 H 0.0 **** 0.06
28315 H 8.508538691827198 58.351709428526306 38.271465500934085 H 0.0 **** 0.06
28316 C 77.02982146348211 78.27937832237171 35.530401987097065 C 0.0 **** -0.24
28317 H 77.93581173892525 78.83339418877375 35.28292476374975 H 0.0 **** 0.06
28318 H 76.18102345504543 78.71846882789134 35.004675411082445 H 0.0 **** 0.06
28319 H 76.85668323808417 78.32926100169385 36.60493524636618 H 0.0 **** 0.06
28320 H 77.1458644313598 77.2394257148768 35.2274078582428 H 0.0 **** 0.06
28321 C 48.47683439311315 74.06604196493478 87.0257935652553 C 0.0 **** -0.24
28322 H 49.13569340758069 74.44653567641346 86.24470056874029 H 0.0 **** 0.06
28323 H 47.48790781451285 73.8805538539234 86.6066142732795 H 0.0 **** 0.06
28324 H 48.400135573795495 74.80281615524775 87.82671807581059 H 0.0 **** 0.06
28325 H 48.88330585206704 73.137053567469 87.42479278564485 H 0.0 **** 0.06
28326 C 122.94266086599866 108.0327541935344 135.90632931470444 C 0.0 **** -0.24
28327 H 122.63874155451028 108.90182222031802 135.32214805105397 H 0.0 **** 0.06
28328 H 122.12975035984228 107.7415324528846 136.57280390408502 H 0.0 **** 0.06
28329 H 123.82478967888015 108.28136813716407 136.49570247901138 H 0.0 **** 0.06
28330 H 123.17492781949336 107.20649110742488 135.23485463419127 H 0.0 **** 0.06
28331 C 37.61344834999431 4.737924022842616 33.898412102119835 C 0.0 **** -0.24
28332 H 36.933933212648405 4.198671295637016 33.23831318692379 H 0.0 **** 0.06
28333 H 37.03560999396078 5.336454705868508 34.602812387131735 H 0.0 **** 0.06
28334 H 38.25387977852849 5.390129986586317 33.305600317209496 H 0.0 **** 0.06
28335 H 38.228923544568765 4.024736682775568 34.446850799578726 H 0.0 **** 0.06
28336 C 80.19525212639722 55.5180136960775 140.76625770190256 C 0.0 **** -0.24
28337 H 79.21702700293088 55.78562711684236 140.36795690954568 H 0.0 **** 0.06
28338 H 80.3658910964251 56.05221317390482 141.70052378975646 H 0.0 **** 0.06
28339 H 80.96714575647283 55.790158312816374 140.04512698774892 H 0.0 **** 0.06
28340 H 80.23214609517626 54.44392210654803 140.94833458797513 H 0.0 **** 0.06
28341 C 105.90921234266116 84.05666823799557 126.32582630558625 C 0.0 **** -0.24
28342 H 106.45575318599654 83.17217999884274 126.00111645637446 H 0.0 **** 0.06
28343 H 105.02280784541935 84.18487807157842 125.70461925481288 H 0.0 **** 0.06
28344 H 106.54912814295628 84.93381544957745 126.23122491962849 H 0.0 **** 0.06
28345 H 105.60940306296348 83.93685476135761 127.36725419751355 H 0.0 **** 0.06
28346 C 85.48945651413541 121.80930870085663 78.96395472283089 C 0.0 **** -0.24
28347 H 86.0689648913713 122.19639087247916 79.80108748263723 H 0.0 **** 0.06
28348 H 85.66732566161592 120.73902432328819 78.86323839624575 H 0.0 **** 0.06
28349 H 85.79121811046066 122.31604729886797 78.04675470524111 H 0.0 **** 0.06
28350 H 84.42823393345786 121.98586451866205 79.1439315162134 H 0.0 **** 0.06
28351 C 70.24840620952124 14.62446882396916 2.7248401218906224 C 0.0 **** -0.24
28352 H 71.11926986689586 15.231400236792595 2.9718980784720657 H 0.0 **** 0.06
28353 H 70.20390393258813 14.474047598888163 1.6463379733209536 H 0.0 **** 0.06
28354 H 69.34407398639637 15.134600273456051 3.0583893438350174 H 0.0 **** 0.06
28355 H 70.32519937490495 13.658456633463196 3.223838270998044 H 0.0 **** 0.06
28356 C 64.61999061291715 50.152683315895075 87.15463393100026 C 0.0 **** -0.24
28357 H 65.31284105299642 49.4754723483517 87.65368047405951 H 0.0 **** 0.06
28358 H 63.78680252459806 50.37619468475938 87.82136491090193 H 0.0 **** 0.06
28359 H 64.2430544265874 49.68145969698028 86.24715815234094 H 0.0 **** 0.06
28360 H 65.13711855610812 51.07623560238008 86.89601698681923 H 0.0 **** 0.06
28361 C 119.10645677748886 114.8510145860455 21.26535947042013 C 0.0 **** -0.24
28362 H 118.77503799939353 115.88588592033364 21.18319021070979 H 0.0 **** 0.06
28363 H 120.17931316991007 114.8278727639925 21.455268640153356 H 0.0 **** 0.06
28364 H 118.88967651762755 114.32471366366588 20.335931935746785 H 0.0 **** 0.06
28365 H 118.58124250121483 114.36595122141131 22.08829470718988 H 0.0 **** 0.06
28366 C 142.6824335123429 30.11656736314739 14.704481381065335 C 0.0 **** -0.24
28367 H 142.8534141198597 31.10724655394033 14.283742445773974 H 0.0 **** 0.06
28368 H 141.6312422961914 30.01347898799829 14.973872759484827 H 0.0 **** 0.06
28369 H 143.2994006886898 29.988680397523176 15.593026964871598 H 0.0 **** 0.06
28370 H 142.94534956866866 29.35863169081074 13.966407827210226 H 0.0 **** 0.06
28371 C 14.142745581219494 119.84497700499912 81.54998463884166 C 0.0 **** -0.24
28372 H 13.831133325139938 120.76956610283935 81.06542335262128 H 0.0 **** 0.06
28373 H 14.995200184138874 119.42463129461862 81.0160065984673 H 0.0 **** 0.06
28374 H 13.3179161400734 119.13277753557253 81.5359066181182 H 0.0 **** 0.06
28375 H 14.426217946502781 120.0530097071615 82.5817480382338 H 0.0 **** 0.06
28376 C 77.89477291609813 101.98026688332266 23.08997098590254 C 0.0 **** -0.24
28377 H 77.60200371066404 100.9302318947656 23.11291968217978 H 0.0 **** 0.06
28378 H 77.2241507078599 102.53069515275888 22.429414015275597 H 0.0 **** 0.06
28379 H 78.9168931084647 102.06384554222262 22.72234922059613 H 0.0 **** 0.06
28380 H 77.83489381653916 102.39523051828542 24.096796011197682 H 0.0 **** 0.06
28381 C 59.426214050482656 12.926672837299947 117.0476660677641 C 0.0 **** -0.24
28382 H 59.34631112959261 13.505924571911294 117.96802082844228 H 0.0 **** 0.06
28383 H 58.726672721955296 13.319084943562103 116.30981137294869 H 0.0 **** 0.06
28384 H 59.190720270610484 11.882265118582751 117.25463740862561 H 0.0 **** 0.06
28385 H 60.44258892365737 13.000102434445068 116.6609270053644 H 0.0 **** 0.06
28386 C 6.155286017539424 131.61330676016286 132.9902349621175 C 0.0 **** -0.24
28387 H 5.680846356373934 131.45730644759598 132.02057116698253 H 0.0 **** 0.06
28388 H 6.822648699988008 130.7800583432065 133.20624177898387 H 0.0 **** 0.06
28389 H 5.388807697118182 131.67542484584865 133.76351387482592 H 0.0 **** 0.06
28390 H 6.725997276716328 132.54143622351293 132.96922945376124 H 0.0 **** 0.06
28391 C 14.05557717754914 105.9370100859232 2.6028673354098864 C 0.0 **** -0.24
28392 H 13.553302260023884 105.24946243445832 3.283586839156385 H 0.0 **** 0.06
28393 H 14.970437256172033 106.30515145706987 3.068506591561608 H 0.0 **** 0.06
28394 H 13.395886881750812 106.77715841663645 2.3835036221571144 H 0.0 **** 0.06
28395 H 14.301844114953553 105.4165836524608 1.6769667743094274 H 0.0 **** 0.06
28396 C 106.2368345988968 2.8910027666288407 94.57105657284797 C 0.0 **** -0.24
28397 H 105.64553040124731 3.796744352889238 94.71244435177249 H 0.0 **** 0.06
28398 H 107.27664037176025 3.0915415810690696 94.83075267962596 H 0.0 **** 0.06
28399 H 106.17565520061099 2.5777216825971117 93.52853944231745 H 0.0 **** 0.06
28400 H 105.84743282828966 2.100133977311387 95.21212030925614 H 0.0 **** 0.06
28401 C 121.96093540801304 107.40400823306018 40.90059521599392 C 0.0 **** -0.24
28402 H 121.56726734326189 107.78906439013369 39.96068775006881 H 0.0 **** 0.06
28403 H 121.5757788078658 106.39814462188033 41.07062381782108 H 0.0 **** 0.06
28404 H 121.65046934954533 108.05489675444542 41.71762081699727 H 0.0 **** 0.06
28405 H 123.048846129591 107.37414030451211 40.853224304356374 H 0.0 **** 0.06
28406 C 133.71830968851748 21.523158807964677 137.14544098045417 C 0.0 **** -0.24
28407 H 133.373694586188 20.823980034947766 136.38352538666368 H 0.0 **** 0.06
28408 H 134.78833810549412 21.387878252291998 137.30570105454268 H 0.0 **** 0.06
28409 H 133.18419659711444 21.33722802422281 138.07779439550552 H 0.0 **** 0.06
28410 H 133.5258390842308 22.54432561379795 136.81490753247868 H 0.0 **** 0.06
28411 C 42.23434191938935 7.179177238226043 142.9179273593068 C 0.0 **** -0.24
28412 H 41.70732125452659 8.066944062543552 142.5694562035596 H 0.0 **** 0.06
28413 H 43.243570488934694 7.171951408062895 142.5075637038103 H 0.0 **** 0.06
28414 H 41.70151466501446 6.287543442110842 142.588004379956 H 0.0 **** 0.06
28415 H 42.28424044287573 7.190960381943881 144.0067474517593 H 0.0 **** 0.06
28416 C 91.40276122448188 48.12360588478549 140.9056398491874 C 0.0 **** -0.24
28417 H 90.940942895673 49.110846257313625 140.9176053297965 H 0.0 **** 0.06
28418 H 91.2026084620772 47.6182918816788 141.85018286192536 H 0.0 **** 0.06
28419 H 92.47857416214168 48.228460417934656 140.76860005652645 H 0.0 **** 0.06
28420 H 90.987120135824 47.538496285617754 140.08476764507927 H 0.0 **** 0.06
28421 C 53.35884212981182 131.89303923407388 11.33355634121176 C 0.0 **** -0.24
28422 H 52.709144674528915 131.23754730448746 11.913140179346044 H 0.0 **** 0.06
28423 H 52.94388388675745 132.90100472446912 11.325004738398434 H 0.0 **** 0.06
28424 H 53.43217442345065 131.5211428728015 10.311734265402436 H 0.0 **** 0.06
28425 H 54.35129774909453 131.9120723578163 11.78509873040423 H 0.0 **** 0.06
28426 C 26.414019509388766 3.5872252409549077 18.345857368441926 C 0.0 **** -0.24
28427 H 25.37675697126258 3.3739430510122688 18.086234446395792 H 0.0 **** 0.06
28428 H 26.71468788239929 4.531960124568595 17.89240787315356 H 0.0 **** 0.06
28429 H 27.05280198957331 2.7858381163753307 17.97575808685849 H 0.0 **** 0.06
28430 H 26.50979374728189 3.656415368562456 19.429572243734356 H 0.0 **** 0.06
28431 C 127.36210973549663 38.648448656334324 25.718169073974785 C 0.0 **** -0.24
28432 H 126.59331050982814 37.94436421497201 25.40214742388487 H 0.0 **** 0.06
28433 H 128.11795533700058 38.73572599281272 24.937827495721557 H 0.0 **** 0.06
28434 H 127.82796010165488 38.28978435322597 26.63642845095326 H 0.0 **** 0.06
28435 H 126.90937568523168 39.62359712772847 25.897966848124057 H 0.0 **** 0.06
28436 C 23.279117905222677 122.33792541522095 58.79903409980646 C 0.0 **** -0.24
28437 H 23.807844693898573 121.3855939826602 58.81236298295633 H 0.0 **** 0.06
28438 H 23.031167651237922 122.6018283036747 57.77056491354108 H 0.0 **** 0.06
28439 H 23.913565458491803 123.11208328681195 59.23081505832609 H 0.0 **** 0.06
28440 H 22.362642008046407 122.25229881625162 59.38304345048189 H 0.0 **** 0.06
28441 C 50.37673965218022 70.98760071144216 133.056189263789 C 0.0 **** -0.24
28442 H 51.10332032491131 70.87872075883358 133.86150136917018 H 0.0 **** 0.06
28443 H 49.86811740684874 70.03655336361226 132.89455602759654 H 0.0 **** 0.06
28444 H 50.890558770696614 71.28568258436795 132.14270474142796 H 0.0 **** 0.06
28445 H 49.64604370195897 71.75013920734638 133.32715678528604 H 0.0 **** 0.06
28446 C 138.07757299456577 110.91208293941816 11.200660896335819 C 0.0 **** -0.24
28447 H 137.5136370367421 110.4166601950443 10.410380925556154 H 0.0 **** 0.06
28448 H 139.13714849981565 110.91318479537216 10.944638558613832 H 0.0 **** 0.06
28449 H 137.9315175355508 110.37875509803666 12.140445526261203 H 0.0 **** 0.06
28450 H 137.72798890615437 111.93973166921938 11.307178574912001 H 0.0 **** 0.06
28451 C 88.43283757905246 32.86831153639535 8.0117939750005 C 0.0 **** -0.24
28452 H 89.38549077952493 33.34997189107252 8.233805485377843 H 0.0 **** 0.06
28453 H 87.64449768143356 33.62113652753337 7.977085287997596 H 0.0 **** 0.06
28454 H 88.2046945061407 32.138644939611396 8.789246434552297 H 0.0 **** 0.06
28455 H 88.49731857791201 32.36387518704683 7.048234417333106 H 0.0 **** 0.06
28456 C 116.2960168140204 55.491534125059346 50.5866044126096 C 0.0 **** -0.24
28457 H 116.1951839458972 54.42252887859769 50.771583792182795 H 0.0 **** 0.06
28458 H 115.9968135146599 55.71301238208426 49.56130409631625 H 0.0 **** 0.06
28459 H 117.333439452463 55.7903859923986 50.73554638557924 H 0.0 **** 0.06
28460 H 115.6572152291016 56.041608154914485 51.27778167287818 H 0.0 **** 0.06
28461 C 5.334768478983875 103.54236316372294 83.90439862302011 C 0.0 **** -0.24
28462 H 4.581392291966353 103.4913167367863 84.69010305460142 H 0.0 **** 0.06
28463 H 6.186657056076967 104.1249414116516 84.25496149822013 H 0.0 **** 0.06
28464 H 4.906789547664232 104.01797885859878 83.02219931340767 H 0.0 **** 0.06
28465 H 5.66332435825899 102.53480271956943 83.65034574839768 H 0.0 **** 0.06
28466 C 55.749047599295835 48.655656134570336 122.01317196123966 C 0.0 **** -0.24
28467 H 56.59095005361969 49.31419227206976 121.79854594164902 H 0.0 **** 0.06
28468 H 55.697005906108004 47.874698638539655 121.25420294254587 H 0.0 **** 0.06
28469 H 54.82527450627448 49.23408589826903 122.00473552724708 H 0.0 **** 0.06
28470 H 55.88548597006891 48.20095712350923 122.99425211456341 H 0.0 **** 0.06
28471 C 46.691837150567466 22.054230445424423 5.519375294481762 C 0.0 **** -0.24
28472 H 47.00758945357907 22.64538973117007 6.3785051113375175 H 0.0 **** 0.06
28473 H 45.606833556939335 22.106808275833345 5.420210051109763 H 0.0 **** 0.06
28474 H 46.99363970285074 21.016232981804933 5.6622963160303925 H 0.0 **** 0.06
28475 H 47.1585924535631 22.446909665960035 4.6163507170353455 H 0.0 **** 0.06
28476 C 13.822965211737028 26.515569919724044 143.2701979923923 C 0.0 **** -0.24
28477 H 12.795862009429527 26.493228945493314 143.63613493176587 H 0.0 **** 0.06
28478 H 14.206652927731 27.534062666279738 143.32813890567462 H 0.0 **** 0.06
28479 H 13.847316139667896 26.175378583972687 142.23550444747298 H 0.0 **** 0.06
28480 H 14.440174396569262 25.85993108805019 143.883349182978 H 0.0 **** 0.06
28481 C 7.275394708378915 122.05399029981628 30.710573124771912 C 0.0 **** -0.24
28482 H 7.815102119074421 122.49850950374376 29.873961198537614 H 0.0 **** 0.06
28483 H 6.755563526747338 121.1569866989834 30.372036512494276 H 0.0 **** 0.06
28484 H 6.55003953081318 122.7703556720566 31.096269138907644 H 0.0 **** 0.06
28485 H 7.980786980995781 121.79013342047217 31.498295898380178 H 0.0 **** 0.06
28486 C 6.682562711630496 111.02176537198767 56.330491440118294 C 0.0 **** -0.24
28487 H 6.452881654309657 111.47713393446514 57.294063441432826 H 0.0 **** 0.06
28488 H 5.770099235024372 110.61685692822766 55.89371527545988 H 0.0 **** 0.06
28489 H 7.406507171257189 110.21936518777392 56.472012655444104 H 0.0 **** 0.06
28490 H 7.101845512775164 111.77599897433021 55.66431164615054 H 0.0 **** 0.06
28491 C 46.537569498621764 37.18213872725079 52.930104828612 C 0.0 **** -0.24
28492 H 46.25062640369586 36.30786733724432 53.51409804540768 H 0.0 **** 0.06
28493 H 46.84883901769123 36.866023753565216 51.933723590609304 H 0.0 **** 0.06
28494 H 47.36344003982583 37.69331405736904 53.42430671593948 H 0.0 **** 0.06
28495 H 45.68739748854827 37.85890906322447 52.84808448113185 H 0.0 **** 0.06
28496 C 89.08297197561419 39.252193469681885 11.683087665337226 C 0.0 **** -0.24
28497 H 90.01009945778085 39.803797355270916 11.839758318857136 H 0.0 **** 0.06
28498 H 88.7704424622197 38.794035845557715 12.6215847630354 H 0.0 **** 0.06
28499 H 89.24555759389227 38.475701608253274 10.935615791848697 H 0.0 **** 0.06
28500 H 88.30800094393169 39.93494587718433 11.335254472878226 H 0.0 **** 0.06
28501 C 64.82273949317042 127.66530518674139 110.9390944121633 C 0.0 **** -0.24
28502 H 64.38506012607641 127.6659242386294 109.94104718603718 H 0.0 **** 0.06
28503 H 65.79669209018624 127.1779990079041 110.90886407028636 H 0.0 **** 0.06
28504 H 64.1673886782655 127.12618736364013 111.62288177748512 H 0.0 **** 0.06
28505 H 64.94051514744504 128.69290731916712 111.28385907859429 H 0.0 **** 0.06
28506 C 96.36734156498252 64.22136457109724 115.59484805994165 C 0.0 **** -0.24
28507 H 96.27127331407095 63.2653596968718 115.07958260120236 H 0.0 **** 0.06
28508 H 95.86821402788604 64.16399354682684 116.56192931022221 H 0.0 **** 0.06
28509 H 95.90726667291507 65.00573783980207 114.99354482381969 H 0.0 **** 0.06
28510 H 97.42278748627045 64.4496255419451 115.74314415239402 H 0.0 **** 0.06
28511 C 12.059493705305442 41.17342874336397 53.83966373221463 C 0.0 **** -0.24
28512 H 11.908186646522495 41.860074255394096 53.007117045646766 H 0.0 **** 0.06
28513 H 11.106498579435367 40.98957137925057 54.335979827282216 H 0.0 **** 0.06
28514 H 12.760014794063409 41.61405515421701 54.5501027037819 H 0.0 **** 0.06
28515 H 12.462875415909366 40.23267401031467 53.46633066236785 H 0.0 **** 0.06
28516 C 20.839917119646373 144.67546192244689 127.39795509884381 C 0.0 **** -0.24
28517 H 21.058660651798448 144.16056073362455 128.33284807722444 H 0.0 **** 0.06
28518 H 20.174578391770524 144.0603825009276 126.79194471514661 H 0.0 **** 0.06
28519 H 21.76766383510636 144.85168366551667 126.8545355733603 H 0.0 **** 0.06
28520 H 20.35717528444917 145.6289796341909 127.61313458064728 H 0.0 **** 0.06
28521 C 139.13638649285957 114.383482967804 102.18775073906133 C 0.0 **** -0.24
28522 H 139.99943811059958 114.32771704454625 101.52364381784216 H 0.0 **** 0.06
28523 H 139.26696607321637 115.21044906965783 102.88512144303795 H 0.0 **** 0.06
28524 H 139.04539056258076 113.44921172313245 102.74309742522989 H 0.0 **** 0.06
28525 H 138.23411052824173 114.5448383380485 101.59742926133427 H 0.0 **** 0.06
28526 C 70.15506419337004 131.59116532198212 17.125648721828547 C 0.0 **** -0.24
28527 H 71.13493631405407 131.92379234023477 16.7847048209563 H 0.0 **** 0.06
28528 H 70.20739550584545 131.3326048316721 18.18457975187279 H 0.0 **** 0.06
28529 H 69.8479692287691 130.71584915227513 16.553228260707435 H 0.0 **** 0.06
28530 H 69.42933982760343 132.39207672596424 16.982428653003005 H 0.0 **** 0.06
28531 C 26.454405389510384 10.947033791056782 26.37691155972979 C 0.0 **** -0.24
28532 H 26.136066729443854 9.96051210412304 26.715039331082238 H 0.0 **** 0.06
28533 H 25.624966767343324 11.647493865797998 26.471193721062292 H 0.0 **** 0.06
28534 H 26.766767881384396 10.889874752928051 25.33472905867245 H 0.0 **** 0.06
28535 H 27.29002060060472 11.287857276450609 26.988967527397335 H 0.0 **** 0.06
28536 C 106.30548689766589 57.71327864590437 90.92592316094297 C 0.0 **** -0.24
28537 H 106.00920448813328 57.005715748185025 90.15216135406698 H 0.0 **** 0.06
28538 H 107.3603548964404 57.96007704021007 90.80683100064215 H 0.0 **** 0.06
28539 H 106.1451735111042 57.26743200674903 91.90750417316846 H 0.0 **** 0.06
28540 H 105.70721469498532 58.61988978847329 90.83719611589422 H 0.0 **** 0.06
28541 C 77.64193415993273 64.66870041364507 114.90693527364976 C 0.0 **** -0.24
28542 H 78.46103714206973 64.5920442519522 115.6214987792763 H 0.0 **** 0.06
28543 H 77.80981702979714 65.52458368384823 114.25223219513487 H 0.0 **** 0.06
28544 H 76.70286590769156 64.80132727369322 115.44495466462291 H 0.0 **** 0.06
28545 H 77.59325552567353 63.75814204598416 114.30991706792105 H 0.0 **** 0.06
28546 C 98.77027405826254 68.14329648059964 143.5441914079187 C 0.0 **** -0.24
28547 H 98.64088502459072 68.70791859646226 142.62133757268654 H 0.0 **** 0.06
28548 H 98.66506338917418 68.81264028808151 144.3979568761272 H 0.0 **** 0.06
28549 H 99.76187337136491 67.6910916795024 143.55770101523657 H 0.0 **** 0.06
28550 H 98.01384443698714 67.35990154178968 143.5998468940863 H 0.0 **** 0.06
28551 C 86.14360224871129 105.15960556081988 138.53233202067764 C 0.0 **** -0.24
28552 H 86.88748971373407 104.39424727164061 138.31298984989382 H 0.0 **** 0.06
28553 H 85.52656588368676 105.3299571296216 137.65030688098565 H 0.0 **** 0.06
28554 H 86.6464517057198 106.08670104709962 138.80895688129704 H 0.0 **** 0.06
28555 H 85.51364878536944 104.82832657395895 139.3576039419424 H 0.0 **** 0.06
28556 C 108.91704046390569 78.58145887662154 122.84609357908897 C 0.0 **** -0.24
28557 H 109.73325551386043 79.07105243412467 123.37719529408011 H 0.0 **** 0.06
28558 H 107.97839635903082 79.08741479629265 123.07566234863481 H 0.0 **** 0.06
28559 H 108.85367297242553 77.53953430701718 123.16009143530144 H 0.0 **** 0.06
28560 H 109.1023409011514 78.6268267733734 121.77335905606168 H 0.0 **** 0.06
28561 C 4.504665982495908 22.412610099707564 40.91482935895263 C 0.0 **** -0.24
28562 H 5.305117738124181 22.830211250987702 41.52736201784961 H 0.0 **** 0.06
28563 H 3.663187916864217 22.14286871124338 41.553113113537506 H 0.0 **** 0.06
28564 H 4.869168072854791 21.52557737699945 40.397353713374514 H 0.0 **** 0.06
28565 H 4.183853608549725 23.153648554641364 40.1830463979733 H 0.0 **** 0.06
28566 C 128.1381163809599 82.42747427006515 106.13963929451366 C 0.0 **** -0.24
28567 H 127.12448406706477 82.80150011211495 106.28652405848173 H 0.0 **** 0.06
28568 H 128.69281953160936 82.5067603588711 107.07404337365192 H 0.0 **** 0.06
28569 H 128.63506407259365 83.01869217613913 105.37032317857118 H 0.0 **** 0.06
28570 H 128.09818140095098 81.38389773199233 105.827019533437 H 0.0 **** 0.06
28571 C 133.39187159311 69.66717191984515 60.561405491274925 C 0.0 **** -0.24
28572 H 134.21312537868093 69.35430647767333 59.915700154024236 H 0.0 **** 0.06
28573 H 133.70392373591096 70.52611895536674 61.15499737231414 H 0.0 **** 0.06
28574 H 133.11826367804392 68.84663408849289 61.22397037891999 H 0.0 **** 0.06
28575 H 132.53321756239023 69.94023942773677 59.94812881480047 H 0.0 **** 0.06
28576 C 16.461167967979748 141.67390969760174 96.66600756099893 C 0.0 **** -0.24
28577 H 16.682940099690313 142.67196994007045 97.04341152843207 H 0.0 **** 0.06
28578 H 15.484811103435845 141.67923365492993 96.17884748957127 H 0.0 **** 0.06
28579 H 16.44970267770404 140.96657304349432 97.49516152424715 H 0.0 **** 0.06
28580 H 17.22441819218548 141.37930673705864 95.94688308183834 H 0.0 **** 0.06
28581 C 6.859147949928683 11.624277580405618 33.29791930612986 C 0.0 **** -0.24
28582 H 7.855687945548141 12.03578748991228 33.13719116585443 H 0.0 **** 0.06
28583 H 6.8478614974302445 10.574271128452352 33.00235705199131 H 0.0 **** 0.06
28584 H 6.136455507936887 12.178294063966831 32.70010645834195 H 0.0 **** 0.06
28585 H 6.5987664192839475 11.70763753500799 34.35343505969602 H 0.0 **** 0.06
28586 C 51.84330626943712 46.688368561547364 39.049010804266516 C 0.0 **** -0.24
28587 H 52.42185964055649 47.013113571299186 38.18414574253683 H 0.0 **** 0.06
28588 H 51.882683327775666 47.45618047373523 39.82187833795987 H 0.0 **** 0.06
28589 H 52.260906806251256 45.75977541325685 39.437116998572975 H 0.0 **** 0.06
28590 H 50.80718638714144 46.524376995182095 38.751616644765676 H 0.0 **** 0.06
28591 C 141.9752165838687 69.49607021469443 44.63178203661376 C 0.0 **** -0.24
28592 H 141.8637036547839 69.22137383243741 43.58248432084699 H 0.0 **** 0.06
28593 H 142.455272224339 70.47145745706005 44.70269854924935 H 0.0 **** 0.06
28594 H 142.5873054428326 68.7504967959407 45.138994407382256 H 0.0 **** 0.06
28595 H 140.99224322106608 69.539358979684 45.10050619283497 H 0.0 **** 0.06
28596 C 21.543178279951064 132.46633257048668 63.37465365654228 C 0.0 **** -0.24
28597 H 21.496796121043133 131.4266893408396 63.698208179145524 H 0.0 **** 0.06
28598 H 20.53304033577814 132.86589571048862 63.28796165594724 H 0.0 **** 0.06
28599 H 22.04123343642209 132.5233553321591 62.40657236904423 H 0.0 **** 0.06
28600 H 22.102935786636806 133.04949422804253 64.10530807182829 H 0.0 **** 0.06
28601 C 11.656287307805762 23.56897087987005 20.900389400065983 C 0.0 **** -0.24
28602 H 11.179493657393849 22.66069462349759 21.270270458613147 H 0.0 **** 0.06
28603 H 12.494593402938577 23.3027886649445 20.257052171917486 H 0.0 **** 0.06
28604 H 12.018170310116489 24.158153370340756 21.743857031023936 H 0.0 **** 0.06
28605 H 10.932356720067638 24.153385593329403 20.333018429648675 H 0.0 **** 0.06
28606 C 139.17281811099335 136.49046138170252 48.106418478090404 C 0.0 **** -0.24
28607 H 139.64923038054243 135.7439933597348 48.74292361655981 H 0.0 **** 0.06
28608 H 138.4965201921345 137.09992124968832 48.70566524077179 H 0.0 **** 0.06
28609 H 138.60981163315202 135.98861950128176 47.31905175383794 H 0.0 **** 0.06
28610 H 139.93674056434716 137.12620371795435 47.65856350928351 H 0.0 **** 0.06
28611 C 34.96955766923318 5.091777307318637 102.52285534314424 C 0.0 **** -0.24
28612 H 35.2004897551823 5.361404137053228 101.49217369934686 H 0.0 **** 0.06
28613 H 35.89498161704134 4.880529188847163 103.05894736882354 H 0.0 **** 0.06
28614 H 34.333397020452736 4.205996316460215 102.53205414602726 H 0.0 **** 0.06
28615 H 34.44828354118235 5.918064602281532 103.00663577300287 H 0.0 **** 0.06
28616 C 114.0190467083098 62.8919572959102 28.710176196501898 C 0.0 **** -0.24
28617 H 114.5207013796758 63.01929015554978 29.670091756684165 H 0.0 **** 0.06
28618 H 114.41383670391205 63.61439905449831 27.995699697211762 H 0.0 **** 0.06
28619 H 112.94803033464162 63.051623241152384 28.83628974025288 H 0.0 **** 0.06
28620 H 114.19479586073466 61.88183489481784 28.34066049664637 H 0.0 **** 0.06
28621 C 44.57935436098143 101.49671881570643 57.38855569584702 C 0.0 **** -0.24
28622 H 44.5151227500711 102.58384397581747 57.43811471964119 H 0.0 **** 0.06
28623 H 44.28861278808972 101.16101104599528 56.393182638642244 H 0.0 **** 0.06
28624 H 43.91147390922794 101.05916364462632 58.13025512992955 H 0.0 **** 0.06
28625 H 45.60462116264671 101.18433054755991 57.592603611422305 H 0.0 **** 0.06
28626 C 75.00686548113075 55.31591023795437 31.164651048586165 C 0.0 **** -0.24
28627 H 73.96996495412586 55.64063670040386 31.258491207812483 H 0.0 **** 0.06
28628 H 75.43009403422829 55.71651135686258 30.242773458456327 H 0.0 **** 0.06
28629 H 75.04612534900593 54.22712345882621 31.140281262051246 H 0.0 **** 0.06
28630 H 75.58050463365117 55.68143319166762 32.016679224222855 H 0.0 **** 0.06
28631 C 128.86717521208053 59.400877814831816 127.71935048016007 C 0.0 **** -0.24
28632 H 128.29766926714277 60.00036890591754 128.42855513712715 H 0.0 **** 0.06
28633 H 128.22195889141148 59.110063348541246 126.88957713828577 H 0.0 **** 0.06
28634 H 129.242332439884 58.50645269782602 128.21816680352688 H 0.0 **** 0.06
28635 H 129.7065640099782 59.98427454547526 127.34044070944893 H 0.0 **** 0.06
28636 C 119.99326753688331 68.23541498009143 23.93024083849528 C 0.0 **** -0.24
28637 H 119.53236679966824 67.91564167157725 24.8649158872349 H 0.0 **** 0.06
28638 H 121.07260857888866 68.09216756257348 23.98981457478925 H 0.0 **** 0.06
28639 H 119.77563494799836 69.29028696584021 23.75948048680047 H 0.0 **** 0.06
28640 H 119.59245982097764 67.64356372037474 23.106752405156783 H 0.0 **** 0.06
28641 C 85.83527671849158 108.31549991642039 83.89558322501836 C 0.0 **** -0.24
28642 H 85.29651157961155 108.98996215112085 84.56147040470285 H 0.0 **** 0.06
28643 H 86.89051194287318 108.59217650279594 83.87502383138764 H 0.0 **** 0.06
28644 H 85.42113963885808 108.39034851576032 82.89030562899126 H 0.0 **** 0.06
28645 H 85.73503067779846 107.2918865221912 84.25562797098956 H 0.0 **** 0.06
28646 C 108.23678077349656 123.50453236167778 77.91562142620865 C 0.0 **** -0.24
28647 H 107.21087456201057 123.32369671161166 77.59419985481435 H 0.0 **** 0.06
28648 H 108.43685904939586 122.94049715103486 78.82562075635764 H 0.0 **** 0.06
28649 H 108.37441144982539 124.56841741488924 78.10833956119258 H 0.0 **** 0.06
28650 H 108.92446005818799 123.18516632499417 77.1313915418158 H 0.0 **** 0.06
28651 C 79.06416505137385 45.87651505480889 25.722103671225483 C 0.0 **** -0.24
28652 H 79.90292116566842 46.56583019427127 25.820382485978968 H 0.0 **** 0.06
28653 H 79.43427496113665 44.85171040940121 25.724923433516906 H 0.0 **** 0.06
28654 H 78.54194092655307 46.071735624064516 24.785135786514672 H 0.0 **** 0.06
28655 H 78.37803418957475 46.01859045076384 26.557283254026743 H 0.0 **** 0.06
28656 C 33.00776208966859 122.96535416402838 3.0087376188981487 C 0.0 **** -0.24
28657 H 32.967763448558294 122.68848658245817 1.955607848159616 H 0.0 **** 0.06
28658 H 32.484425258910804 123.91051282637653 3.1564860597152418 H 0.0 **** 0.06
28659 H 34.04765510224627 123.07359926268586 3.3171957578484026 H 0.0 **** 0.06
28660 H 32.529807571851094 122.18871891076368 3.606680010724517 H 0.0 **** 0.06
28661 C 46.99997590258769 0.19358592781327388 126.49986595320766 C 0.0 **** -0.24
28662 H 47.086482326486134 0.0074498280333443745 127.57068009053367 H 0.0 **** 0.06
28663 H 46.970846331352675 -0.7574783963278264 125.96710234316517 H 0.0 **** 0.06
28664 H 47.857421937962215 0.7741326681461089 126.16125611456476 H 0.0 **** 0.06
28665 H 46.08393985932594 0.7499384257311306 126.30162429444205 H 0.0 **** 0.06
28666 C 20.195752372845362 90.23110118124441 27.565184074405266 C 0.0 **** -0.24
28667 H 19.16318950599777 89.89432677208981 27.65588582669554 H 0.0 **** 0.06
28668 H 20.227020244272026 91.15150082676661 26.981378673748594 H 0.0 **** 0.06
28669 H 20.78588853902376 89.46332677815224 27.06478156698512 H 0.0 **** 0.06
28670 H 20.605359261215526 90.41619519785962 28.557386789888852 H 0.0 **** 0.06
28671 C 73.46909840942676 120.21314003593541 124.49816675443785 C 0.0 **** -0.24
28672 H 74.23595682579875 119.65006292751089 123.96554656459705 H 0.0 **** 0.06
28673 H 73.93897684688847 121.0110938943118 125.07295522109642 H 0.0 **** 0.06
28674 H 72.93103522325603 119.5461059582848 125.17146195639117 H 0.0 **** 0.06
28675 H 72.7723944703627 120.64471790565098 123.7800984957922 H 0.0 **** 0.06
28676 C 21.078394319466156 105.18352246916984 130.01131689840065 C 0.0 **** -0.24
28677 H 21.161177287089913 106.18824950289664 130.42464052884876 H 0.0 **** 0.06
28678 H 21.235638938746945 104.45110279347264 130.80367760160885 H 0.0 **** 0.06
28679 H 21.831612826975288 105.04684466543188 129.2351017394618 H 0.0 **** 0.06
28680 H 20.085633565230467 105.04777350339691 129.58317070258468 H 0.0 **** 0.06
28681 C 133.72689511257042 52.703211322413864 127.40127501982481 C 0.0 **** -0.24
28682 H 133.29460401327376 52.62810895209125 126.40367694491177 H 0.0 **** 0.06
28683 H 133.83289637428052 53.754444870188905 127.67307963505114 H 0.0 **** 0.06
28684 H 134.70701535184756 52.22607119292152 127.40949215574203 H 0.0 **** 0.06
28685 H 133.07462444460984 52.205787877754545 128.1185195771211 H 0.0 **** 0.06
28686 C 138.08873765870285 75.08875247374283 143.66049657424358 C 0.0 **** -0.24
28687 H 137.11677807409808 74.86892791707285 144.101989065326 H 0.0 **** 0.06
28688 H 138.68348545660947 74.17560730339844 143.61944902802128 H 0.0 **** 0.06
28689 H 138.60428077996764 75.83146648127584 144.26890685224976 H 0.0 **** 0.06
28690 H 137.94996861380008 75.4771813009967 142.65095502115156 H 0.0 **** 0.06
28691 C 47.21514195910703 130.12676445510093 32.11329423747179 C 0.0 **** -0.24
28692 H 46.99498352029754 131.19207060327423 32.04398355265397 H 0.0 **** 0.06
28693 H 48.284171522749844 129.9664676614189 31.972771522009452 H 0.0 **** 0.06
28694 H 46.66210965454154 129.59017738573988 31.341501816097946 H 0.0 **** 0.06
28695 H 46.91862592058918 129.7577938722956 33.09541076146235 H 0.0 **** 0.06
28696 C 113.35638410362277 65.18230070339132 132.6714304770904 C 0.0 **** -0.24
28697 H 113.59376906656708 64.28312390580999 132.10349797002314 H 0.0 **** 0.06
28698 H 113.5203991007361 66.06007852058582 132.0457619436781 H 0.0 **** 0.06
28699 H 113.99747711469969 65.2373951619945 133.55035093982883 H 0.0 **** 0.06
28700 H 112.3131702036802 65.14849290075591 132.98454013919917 H 0.0 **** 0.06
28701 C 27.505703281526053 20.52520545367645 90.69075779630282 C 0.0 **** -0.24
28702 H 27.307264166848142 19.561629505794116 90.22198366608006 H 0.0 **** 0.06
28703 H 28.567991555967865 20.60279163038109 90.92430638592708 H 0.0 **** 0.06
28704 H 26.9241267078159 20.6095992642868 91.60808228351124 H 0.0 **** 0.06
28705 H 27.224286259306155 21.325425732510922 90.00682152218053 H 0.0 **** 0.06
28706 C 33.27342564333736 54.37650095177429 76.48776869461456 C 0.0 **** -0.24
28707 H 32.890642323091186 55.346270469136414 76.17095822087258 H 0.0 **** 0.06
28708 H 32.74499120339837 53.585996020279595 75.95615621033163 H 0.0 **** 0.06
28709 H 33.11988637643975 54.25928294092688 77.56167913635879 H 0.0 **** 0.06
28710 H 34.339029202638955 54.31595056426096 76.26493549855246 H 0.0 **** 0.06
28711 C 30.533732590147665 99.4356750827755 88.84937602587327 C 0.0 **** -0.24
28712 H 30.856271047389853 98.44748103528813 88.52082864422712 H 0.0 **** 0.06
28713 H 30.896212793969582 100.18778994044962 88.14757669262423 H 0.0 **** 0.06
28714 H 30.93875392231807 99.63812227848119 89.84063670248904 H 0.0 **** 0.06
28715 H 29.44510321741336 99.46820811140672 88.88711943870351 H 0.0 **** 0.06
28716 C 111.03616997365893 3.3353694591150145 107.88802122984605 C 0.0 **** -0.24
28717 H 111.1241965401301 3.7586651205444355 106.88843385713001 H 0.0 **** 0.06
28718 H 112.02129426014446 3.2965389945581762 108.35398611611997 H 0.0 **** 0.06
28719 H 110.6259389838086 2.327486915208283 107.82117640838426 H 0.0 **** 0.06
28720 H 110.37298694877464 3.9581138262967954 108.48917983195561 H 0.0 **** 0.06
28721 C 126.62217191975125 20.597961226929613 23.145737586776534 C 0.0 **** -0.24
28722 H 127.43897514583969 21.299353213799748 23.315232884264617 H 0.0 **** 0.06
28723 H 126.03408875329379 20.92501175755484 22.287426397693196 H 0.0 **** 0.06
28724 H 125.98550357184874 20.562242989646393 24.03036381635559 H 0.0 **** 0.06
28725 H 127.0295845448081 19.606389900990962 22.952021054766305 H 0.0 **** 0.06
28726 C 47.47972113621012 14.403694887248207 62.94197572095234 C 0.0 **** -0.24
28727 H 47.329910888118434 13.737819956147035 62.09121992266269 H 0.0 **** 0.06
28728 H 48.04359940222392 13.88163540184641 63.715544157904915 H 0.0 **** 0.06
28729 H 46.511423451666886 14.707334015777406 63.3390761405317 H 0.0 **** 0.06
28730 H 48.03351317474558 15.285459438748006 62.61996401193909 H 0.0 **** 0.06
28731 C 56.96951861537761 109.8363118820985 7.954101156640121 C 0.0 **** -0.24
28732 H 57.76800302653268 109.10151694601578 7.844296753019478 H 0.0 **** 0.06
28733 H 57.082445949603795 110.6108813930525 7.195627438224278 H 0.0 **** 0.06
28734 H 57.0254009755034 110.2874252648609 8.945615576659549 H 0.0 **** 0.06
28735 H 56.00532436783763 109.34417158381925 7.832215077660919 H 0.0 **** 0.06
28736 C 23.018658007530547 91.93429563370766 64.20439704599198 C 0.0 **** -0.24
28737 H 23.053564754316213 90.8603953052644 64.38578190894123 H 0.0 **** 0.06
28738 H 23.75466264087953 92.4328285078003 64.83577734619325 H 0.0 **** 0.06
28739 H 22.023236606901833 92.31001846529237 64.44051665870802 H 0.0 **** 0.06
28740 H 23.242915279301485 92.13329264758663 63.15623113346081 H 0.0 **** 0.06
28741 C 80.58636503327781 51.874859606846954 133.44924461970413 C 0.0 **** -0.24
28742 H 80.63095818590993 52.54573651659197 132.59222918759053 H 0.0 **** 0.06
28743 H 81.40977643051757 51.16204906784529 133.39497912240438 H 0.0 **** 0.06
28744 H 79.6380577130808 51.33756751350897 133.44122425002604 H 0.0 **** 0.06
28745 H 80.66736439358085 52.4544004001464 134.36919054002976 H 0.0 **** 0.06
28746 C 128.1013228311779 132.90923190059632 86.15001122518171 C 0.0 **** -0.24
28747 H 127.56994963885424 132.99086681835493 87.09818956569907 H 0.0 **** 0.06
28748 H 127.59272924996483 132.1897612372699 85.5089563185985 H 0.0 **** 0.06
28749 H 129.12269587624243 132.57511805465523 86.33396220265234 H 0.0 **** 0.06
28750 H 128.1211086122559 133.88324630187495 85.65949880424898 H 0.0 **** 0.06
28751 C 71.8810649966022 95.78217774376543 20.898791049290196 C 0.0 **** -0.24
28752 H 72.11689241015245 95.19293158648782 21.784023347569303 H 0.0 **** 0.06
28753 H 70.80057362115514 95.81030227553663 20.757690739860436 H 0.0 **** 0.06
28754 H 72.35072089597892 95.329066369121 20.025360259906194 H 0.0 **** 0.06
28755 H 72.25787007497563 96.7971240151794 21.02696637461881 H 0.0 **** 0.06
28756 C 125.79228523593555 72.07691480259196 102.53692450711924 C 0.0 **** -0.24
28757 H 125.73227999343717 73.15742657080696 102.67054570135053 H 0.0 **** 0.06
28758 H 124.81004193639838 71.63555535748598 102.70596249184086 H 0.0 **** 0.06
28759 H 126.50596263860288 71.66258426044193 103.24900572548626 H 0.0 **** 0.06
28760 H 126.12122253352442 71.8548925198278 101.52201355931254 H 0.0 **** 0.06
28761 C 65.31046108526061 94.06915296752561 86.5842781896707 C 0.0 **** -0.24
28762 H 65.51730226146917 94.99905985423618 87.11551342663967 H 0.0 **** 0.06
28763 H 65.7400550471012 93.23377177417842 87.13647756737669 H 0.0 **** 0.06
28764 H 65.75142208706723 94.11342914108377 85.58833345176551 H 0.0 **** 0.06
28765 H 64.23168421119338 93.93285153297677 86.49847410395795 H 0.0 **** 0.06
28766 C 62.64321541687764 133.87306806922945 135.0266063000575 C 0.0 **** -0.24
28767 H 61.90000976959233 134.6681012695997 135.09021831954968 H 0.0 **** 0.06
28768 H 62.88295886806067 133.51833852212755 136.0293749450219 H 0.0 **** 0.06
28769 H 63.5455385158307 134.25695423596315 134.55116302200122 H 0.0 **** 0.06
28770 H 62.24304469255826 133.0493091525421 134.4353546249088 H 0.0 **** 0.06
28771 C 65.64589815529924 80.80188742028201 15.07343047448262 C 0.0 **** -0.24
28772 H 65.28109066583431 81.01096540436052 14.06770496696575 H 0.0 **** 0.06
28773 H 66.56046268759845 81.36851259867217 15.252230863982732 H 0.0 **** 0.06
28774 H 65.85318544123143 79.73617431135264 15.171131312576563 H 0.0 **** 0.06
28775 H 64.88909916807715 81.09376484407044 15.801449534770398 H 0.0 **** 0.06
28776 C 48.119732672055505 55.8456726186661 119.62878906869814 C 0.0 **** -0.24
28777 H 47.98459101832029 56.80500769675504 119.12845530654248 H 0.0 **** 0.06
28778 H 48.79513488669511 55.971558471515195 120.47583957393378 H 0.0 **** 0.06
28779 H 48.5444884964804 55.12743031047707 118.92808489669225 H 0.0 **** 0.06
28780 H 47.15569595155168 55.48216214168956 119.98288958872602 H 0.0 **** 0.06
28781 C 110.7932752534491 144.54737639013737 69.21129450144554 C 0.0 **** -0.24
28782 H 111.67719937954568 145.0764827724792 69.56954237380661 H 0.0 **** 0.06
28783 H 110.02765772270443 144.55373174883658 69.98663718073607 H 0.0 **** 0.06
28784 H 111.05989559282072 143.51924977918773 68.96968512005112 H 0.0 **** 0.06
28785 H 110.4114277976842 145.04355223018126 68.31887645699948 H 0.0 **** 0.06
28786 C 49.425825732936715 101.88266743077034 109.88610290912733 C 0.0 **** -0.24
28787 H 48.78358633172584 102.38503779601399 110.60930098270116 H 0.0 **** 0.06
28788 H 49.40200230690863 102.42634439292189 108.94098452588393 H 0.0 **** 0.06
28789 H 49.07022651824755 100.86482454917075 109.72946665943176 H 0.0 **** 0.06
28790 H 50.44719518487719 101.85689286937392 110.26476103127017 H 0.0 **** 0.06
28791 C 16.043590446352255 86.56962211937035 141.42907564964324 C 0.0 **** -0.24
28792 H 17.024754121359138 86.48722437706797 140.96109983026733 H 0.0 **** 0.06
28793 H 15.518920496684359 85.6183341998729 141.34297330124116 H 0.0 **** 0.06
28794 H 15.466941437084643 87.34928635721391 140.92958333641212 H 0.0 **** 0.06
28795 H 16.16358936619463 86.82544322795653 142.48178772501805 H 0.0 **** 0.06
28796 C 128.96572740929588 65.12743883037365 69.31524201643542 C 0.0 **** -0.24
28797 H 129.74873932700413 65.24083581184519 68.56579733049756 H 0.0 **** 0.06
28798 H 128.0610648092089 65.62894627723958 68.97297938046971 H 0.0 **** 0.06
28799 H 129.295832622338 65.57212882746998 70.25424269056542 H 0.0 **** 0.06
28800 H 128.75971606698653 64.06767026814785 69.46792093088031 H 0.0 **** 0.06
28801 C 8.850606913646914 0.14719167619591644 33.55864346022433 C 0.0 **** -0.24
28802 H 8.597636857065424 0.9490829881373202 34.251999325586794 H 0.0 **** 0.06
28803 H 8.222530196759465 -0.7215604507330795 33.76263952638722 H 0.0 **** 0.06
28804 H 9.898734019056178 -0.12423833090548442 33.68364829398868 H 0.0 **** 0.06
28805 H 8.682530322506977 0.4841570371589228 32.535785944041564 H 0.0 **** 0.06
28806 C 100.13395890164816 87.02658064001399 27.722296949307378 C 0.0 **** -0.24
28807 H 100.1012668186419 85.9758299593999 28.01131625050084 H 0.0 **** 0.06
28808 H 99.29607732164823 87.55527398238434 28.17842387252145 H 0.0 **** 0.06
28809 H 100.0684405180227 87.10811617341975 26.63781313270394 H 0.0 **** 0.06
28810 H 101.0708591076829 87.4667384460998 28.063918101307678 H 0.0 **** 0.06
28811 C 14.568398557780654 73.1915952290287 123.6871542279772 C 0.0 **** -0.24
28812 H 15.463531864067363 72.57026600632679 123.70212863146821 H 0.0 **** 0.06
28813 H 13.767801089438194 72.68916524847417 124.2301953983914 H 0.0 **** 0.06
28814 H 14.259192754819793 73.35785818361295 122.65520447105592 H 0.0 **** 0.06
28815 H 14.784140190546935 74.15018264600482 124.15979959188468 H 0.0 **** 0.06
28816 C 119.7065282238664 129.38838438433172 49.22850501710067 C 0.0 **** -0.24
28817 H 120.2032283888544 128.44836903041593 49.4674295812093 H 0.0 **** 0.06
28818 H 119.13763176003633 129.27380727952246 48.30580148989017 H 0.0 **** 0.06
28819 H 120.45358599496157 130.17201572712983 49.10031171113769 H 0.0 **** 0.06
28820 H 119.03166675161319 129.6593455002584 50.04047728616544 H 0.0 **** 0.06
28821 C 9.73859394929164 112.81816440608873 129.5137991827023 C 0.0 **** -0.24
28822 H 9.084866221382498 113.30265396521725 130.23838442827622 H 0.0 **** 0.06
28823 H 9.323295251160914 111.84806320247378 129.24208699732426 H 0.0 **** 0.06
28824 H 10.727491235243207 112.68022957411927 129.95214274600005 H 0.0 **** 0.06
28825 H 9.819999610346116 113.44197578151096 128.62313065602962 H 0.0 **** 0.06
28826 C 124.48083536862035 24.574884812419526 52.98119177500888 C 0.0 **** -0.24
28827 H 124.56121228928086 25.4668430996566 53.60413153799476 H 0.0 **** 0.06
28828 H 124.76332750872601 23.698803895792018 53.56486061070838 H 0.0 **** 0.06
28829 H 125.14640955096777 24.670484428003547 52.12307194946351 H 0.0 **** 0.06
28830 H 123.45343993632346 24.46523874981669 52.63483612268938 H 0.0 **** 0.06
28831 C 77.57101261265618 145.39684720309083 126.82302481086393 C 0.0 **** -0.24
28832 H 78.62606074425102 145.66306711280595 126.75706037370591 H 0.0 **** 0.06
28833 H 77.44487486645366 144.58773909854676 127.54327983123065 H 0.0 **** 0.06
28834 H 77.21629909855429 145.07135720588087 125.84444546457163 H 0.0 **** 0.06
28835 H 76.99711147367333 146.26465594696896 127.14654655707895 H 0.0 **** 0.06
28836 C 110.24598595333838 143.9320002583813 125.52456036557035 C 0.0 **** -0.24
28837 H 110.8304217230589 143.7833463433474 124.61707885005175 H 0.0 **** 0.06
28838 H 110.8837675752424 143.7845001382749 126.3964108329406 H 0.0 **** 0.06
28839 H 109.42470969455671 143.2153449387915 125.5497870048035 H 0.0 **** 0.06
28840 H 109.84391440336996 144.94557056439092 125.53603399912001 H 0.0 **** 0.06
28841 C 7.705250130722561 111.095493054248 111.44695904047423 C 0.0 **** -0.24
28842 H 8.645890957169854 111.49678469771185 111.07069089269733 H 0.0 **** 0.06
28843 H 6.990006572430445 111.90851745331763 111.57802752528572 H 0.0 **** 0.06
28844 H 7.877477218917022 110.60536169220653 112.40518916637127 H 0.0 **** 0.06
28845 H 7.307805501113592 110.37258666433739 110.7357544718161 H 0.0 **** 0.06
28846 C 24.414787604756555 112.16354196255938 18.619856523355807 C 0.0 **** -0.24
28847 H 24.028859349281447 113.17339826900624 18.762722070703752 H 0.0 **** 0.06
28848 H 24.517235488785673 111.67388782813148 19.58785451925366 H 0.0 **** 0.06
28849 H 25.388734338951878 112.21350708703866 18.13189219198285 H 0.0 **** 0.06
28850 H 23.7243196498531 111.59626874909836 17.995682667352547 H 0.0 **** 0.06
28851 C 81.52660098245093 135.52292383228954 46.33258081485653 C 0.0 **** -0.24
28852 H 81.29156180477804 135.80892541027123 47.357284446718126 H 0.0 **** 0.06
28853 H 82.11607688376921 136.3098087799203 45.86200017567495 H 0.0 **** 0.06
28854 H 80.60149915609833 135.37776521554517 45.77444687376564 H 0.0 **** 0.06
28855 H 82.09701739369615 134.59380422206098 46.3365542500172 H 0.0 **** 0.06
28856 C 117.30918466340404 93.3370148956889 9.313636609852153 C 0.0 **** -0.24
28857 H 118.02019587418948 92.51062223374336 9.28689395138477 H 0.0 **** 0.06
28858 H 116.31536746875281 92.95401437746963 9.544763996988735 H 0.0 **** 0.06
28859 H 117.29207538654975 93.83300739045904 8.343009684620625 H 0.0 **** 0.06
28860 H 117.61125740611993 94.05034655819438 10.081036722374563 H 0.0 **** 0.06
28861 C 43.46871925453166 131.97438375427296 131.04282592899406 C 0.0 **** -0.24
28862 H 44.0578679498704 131.30450817011987 130.415816797597 H 0.0 **** 0.06
28863 H 43.36146179945435 132.9381661987977 130.5439901011824 H 0.0 **** 0.06
28864 H 43.972362452668605 132.11412593238694 131.99879951856096 H 0.0 **** 0.06
28865 H 42.482856396099265 131.5394184097257 131.21065775439118 H 0.0 **** 0.06
28866 C 68.47450154288585 49.06518681762421 96.0678392493601 C 0.0 **** -0.24
28867 H 68.07015006649884 48.05793917709008 95.96512609415831 H 0.0 **** 0.06
28868 H 67.7565997792549 49.78664946007403 95.67710451843234 H 0.0 **** 0.06
28869 H 69.40776198134678 49.14075790588221 95.50924737005218 H 0.0 **** 0.06
28870 H 68.66381366486675 49.27489464929225 97.12116042290123 H 0.0 **** 0.06
28871 C 134.75893668890112 40.07969827363911 87.48556015925374 C 0.0 **** -0.24
28872 H 134.1872432324209 40.4855980409117 86.64990296508269 H 0.0 **** 0.06
28873 H 135.7065871450565 40.61132031843968 87.56969395215901 H 0.0 **** 0.06
28874 H 134.9501033567602 39.019941921965824 87.31368310073998 H 0.0 **** 0.06
28875 H 134.18922505173262 40.2007185403739 88.40654637668281 H 0.0 **** 0.06
28876 C 132.4927805830896 44.001518287361904 123.92665170994508 C 0.0 **** -0.24
28877 H 132.69869654102354 43.96696910800756 124.99594625315035 H 0.0 **** 0.06
28878 H 131.41681491688115 44.06268573508612 123.76567875477494 H 0.0 **** 0.06
28879 H 132.8802510868079 43.09915220835944 123.45306223573311 H 0.0 **** 0.06
28880 H 132.97653158952238 44.87538680883068 123.49161077414706 H 0.0 **** 0.06
28881 C 130.03401784964754 32.41110837055905 114.28743838129486 C 0.0 **** -0.24
28882 H 130.29723488707498 31.960425897546628 115.24353404957026 H 0.0 **** 0.06
28883 H 130.1269756802044 33.49538804268852 114.3584129180702 H 0.0 **** 0.06
28884 H 129.0059607242511 32.15064235197329 114.03322990051316 H 0.0 **** 0.06
28885 H 130.70429464391313 32.03825168214601 113.51341591722274 H 0.0 **** 0.06
28886 C 65.80931349577011 8.771458131978022 36.913792680122356 C 0.0 **** -0.24
28887 H 66.5384015175591 8.140591747225358 36.403571908839396 H 0.0 **** 0.06
28888 H 65.43059589190565 9.521885429640207 36.21994490208416 H 0.0 **** 0.06
28889 H 66.28600302256379 9.265737348094405 37.75979268675795 H 0.0 **** 0.06
28890 H 64.98366317232372 8.155546368123169 37.27054910754558 H 0.0 **** 0.06
28891 C 19.638500798582356 77.65521623748924 75.65569308782533 C 0.0 **** -0.24
28892 H 20.49778387730572 78.32425752632787 75.60488697523844 H 0.0 **** 0.06
28893 H 19.054501556581044 77.88111800745381 76.54824796007925 H 0.0 **** 0.06
28894 H 19.98472222905292 76.62263266626914 75.70000769246727 H 0.0 **** 0.06
28895 H 19.017742494664162 77.79207418082692 74.77054061256989 H 0.0 **** 0.06
28896 C 134.02395318473063 90.2450117805962 36.90137976486028 C 0.0 **** -0.24
28897 H 134.17153469865096 89.22086026927855 37.244330611019365 H 0.0 **** 0.06
28898 H 134.39519362375003 90.9379573417882 37.657239497309575 H 0.0 **** 0.06
28899 H 132.96196679617364 90.42204714172078 36.73494288945588 H 0.0 **** 0.06
28900 H 134.56885596621012 90.39656141972642 35.969336534436025 H 0.0 **** 0.06
28901 C 41.45063859128392 24.690199450021773 54.46261755805196 C 0.0 **** -0.24
28902 H 41.097998045376315 24.227277941617594 55.38525470117122 H 0.0 **** 0.06
28903 H 42.465525716694074 24.352508633584563 54.252886950116704 H 0.0 **** 0.06
28904 H 41.443306117520294 25.774179141108142 54.57456459253035 H 0.0 **** 0.06
28905 H 40.79535573442344 24.403775011498283 53.64050608143873 H 0.0 **** 0.06
28906 C 50.69160093615312 130.24339793636153 43.21517971424183 C 0.0 **** -0.24
28907 H 49.80226625756205 130.4049356537894 42.6062279263663 H 0.0 **** 0.06
28908 H 50.511151071435506 130.61064959296553 44.22611295689896 H 0.0 **** 0.06
28909 H 51.53375994979302 130.77970331945474 42.77885232519864 H 0.0 **** 0.06
28910 H 50.91909868471595 129.17767144744835 43.25029025992032 H 0.0 **** 0.06
28911 C 8.18515752039491 58.967830781816104 144.47074766321293 C 0.0 **** -0.24
28912 H 8.475437713084602 58.06953587551705 145.01461669053347 H 0.0 **** 0.06
28913 H 7.2365263444352195 59.338684384177995 144.86123770566684 H 0.0 **** 0.06
28914 H 8.07491430627357 58.73289194925033 143.41237105288906 H 0.0 **** 0.06
28915 H 8.952929126878587 59.73159271265561 144.59540872505693 H 0.0 **** 0.06
28916 C 52.81059935599323 83.84627278586953 45.33450201363348 C 0.0 **** -0.24
28917 H 53.199522073581775 84.28980083021904 46.25163664618697 H 0.0 **** 0.06
28918 H 51.75868209413285 83.59454422135505 45.47129646747493 H 0.0 **** 0.06
28919 H 53.37341526161565 82.94220044452263 45.10074705069235 H 0.0 **** 0.06
28920 H 52.91098473275672 84.55883478425372 44.51569673881494 H 0.0 **** 0.06
28921 C 127.27801661047522 22.77024472127617 89.82897597720995 C 0.0 **** -0.24
28922 H 127.10260885039331 23.747683128844784 89.38068686236306 H 0.0 **** 0.06
28923 H 126.34219007281081 22.210995154852412 89.85841348515433 H 0.0 **** 0.06
28924 H 127.65669562689112 22.89919787016504 90.8425311805444 H 0.0 **** 0.06
28925 H 128.0096180321436 22.22389601303682 89.23359345287011 H 0.0 **** 0.06
28926 C 94.79868437911162 19.51016654780944 50.30705997497387 C 0.0 **** -0.24
28927 H 94.12614475120594 19.272844772483488 49.48200435582828 H 0.0 **** 0.06
28928 H 95.31792908840696 20.445570243068317 50.09530820201195 H 0.0 **** 0.06
28929 H 95.52763395422011 18.70716915688518 50.42207588806514 H 0.0 **** 0.06
28930 H 94.22374990392616 19.61226612088776 51.22649504371867 H 0.0 **** 0.06
28931 C 7.739627607900303 79.12425284142977 76.75987431388509 C 0.0 **** -0.24
28932 H 7.039623541496667 78.28988323123609 76.79945387190624 H 0.0 **** 0.06
28933 H 8.716235357703738 78.79616449526225 77.11650193166913 H 0.0 **** 0.06
28934 H 7.375599063736246 79.93446017303833 77.39132674838044 H 0.0 **** 0.06
28935 H 7.827618458415856 79.47567915445245 75.7322002310156 H 0.0 **** 0.06
28936 C 5.03580851843401 87.5711856388437 116.65387062471457 C 0.0 **** -0.24
28937 H 4.181282103681667 86.90010202801096 116.56252334455634 H 0.0 **** 0.06
28938 H 5.957783693943469 86.98841707890193 116.65047266336707 H 0.0 **** 0.06
28939 H 4.961610935548208 88.12898583767952 117.5869528921289 H 0.0 **** 0.06
28940 H 5.042533809768997 88.26682752195632 115.8138509210285 H 0.0 **** 0.06
28941 C 144.64637741307385 88.22688168988735 77.61546416042412 C 0.0 **** -0.24
28942 H 144.85135926319214 88.79715182574596 76.71056514902892 H 0.0 **** 0.06
28943 H 144.53042840138104 87.17289173181635 77.36282035135824 H 0.0 **** 0.06
28944 H 143.72911332680968 88.59420416508986 78.07581587047838 H 0.0 **** 0.06
28945 H 145.47518803717273 88.34427824103624 78.31456998560031 H 0.0 **** 0.06
28946 C 113.56899424586723 139.16206024576897 40.537546395777476 C 0.0 **** -0.24
28947 H 112.8850606419409 138.56644992391014 39.9328646044839 H 0.0 **** 0.06
28948 H 113.33724891804897 139.01845066875012 41.593601012467474 H 0.0 **** 0.06
28949 H 113.4572185084061 140.2149622256819 40.28132102141194 H 0.0 **** 0.06
28950 H 114.59380391515256 138.84757666630745 40.343935828774185 H 0.0 **** 0.06
28951 C 53.96767197419584 101.85908693663004 49.08428323857933 C 0.0 **** -0.24
28952 H 53.22568405072525 102.48412192877065 49.582274327683734 H 0.0 **** 0.06
28953 H 54.86366632408344 101.79689144637892 49.702410871786356 H 0.0 **** 0.06
28954 H 54.22177000910321 102.29564885270172 48.11864523344431 H 0.0 **** 0.06
28955 H 53.55841307923794 100.86009159053752 48.935924466433846 H 0.0 **** 0.06
28956 C 17.133257142343382 101.3670124249424 138.2962774800393 C 0.0 **** -0.24
28957 H 17.170558186706813 100.42365483479159 138.84018826701413 H 0.0 **** 0.06
28958 H 16.103817912637936 101.57708171964657 138.00398017757993 H 0.0 **** 0.06
28959 H 17.7570340089447 101.29627214522787 137.40465302246616 H 0.0 **** 0.06
28960 H 17.50234741469589 102.1697925772558 138.93458249722596 H 0.0 **** 0.06
28961 C 78.2643976203099 63.175881451916524 10.586992942012529 C 0.0 **** -0.24
28962 H 79.33992153805696 63.35077192360157 10.623083733308732 H 0.0 **** 0.06
28963 H 77.9616807677474 62.983363190121196 9.557658628951287 H 0.0 **** 0.06
28964 H 77.74065655833667 64.05547024558066 10.961106218278786 H 0.0 **** 0.06
28965 H 78.01502420826864 62.314479845886495 11.206893004310245 H 0.0 **** 0.06
28966 C 28.842758510013425 31.356792712519656 119.64242199251841 C 0.0 **** -0.24
28967 H 29.29308815021426 31.64498627533633 120.59216804898684 H 0.0 **** 0.06
28968 H 27.75637926189023 31.365361196433398 119.73754118541173 H 0.0 **** 0.06
28969 H 29.176289086771305 30.354517296028398 119.3714288379851 H 0.0 **** 0.06
28970 H 29.14641066370075 32.06174488506484 118.86791651123859 H 0.0 **** 0.06
28971 C 65.48224613632527 52.141282382318536 3.1651085766507663 C 0.0 **** -0.24
28972 H 65.87274140251441 53.130378384704585 2.9235107950535735 H 0.0 **** 0.06
28973 H 64.46862163197915 52.046535827620474 2.776434775435007 H 0.0 **** 0.06
28974 H 65.4710113120762 52.00962232322598 4.246466633410307 H 0.0 **** 0.06
28975 H 66.11870699143856 51.37952819056596 2.7131682120205483 H 0.0 **** 0.06
28976 C 139.41869937907174 34.72011722740808 80.08355375172488 C 0.0 **** -0.24
28977 H 138.64120960559262 34.405102042002596 79.38835023130304 H 0.0 **** 0.06
28978 H 140.38375906175804 34.34543083257776 79.74301771397296 H 0.0 **** 0.06
28979 H 139.20315516482114 34.32183441770414 81.07503012165279 H 0.0 **** 0.06
28980 H 139.44602758865238 35.808725368043724 80.12825687110603 H 0.0 **** 0.06
28981 C 3.25729099435425 0.3164227628295748 40.81464968123828 C 0.0 **** -0.24
28982 H 2.7205050233982924 -0.2575999074584274 41.569620323592176 H 0.0 **** 0.06
28983 H 4.330203859587929 0.2280785227397928 40.98522275250497 H 0.0 **** 0.06
28984 H 2.963600034614881 1.3639654512186894 40.87778295323682 H 0.0 **** 0.06
28985 H 3.0142007490539164 -0.06956277641359065 39.82399371037798 H 0.0 **** 0.06
28986 C 101.1123896767899 87.57890876099773 57.10397901228316 C 0.0 **** -0.24
28987 H 100.07232915446669 87.29154660756089 56.95535221648922 H 0.0 **** 0.06
28988 H 101.1953861045479 88.66533674592344 57.0845187779789 H 0.0 **** 0.06
28989 H 101.72449218954847 87.15267055142112 56.3087951193303 H 0.0 **** 0.06
28990 H 101.45819534730337 87.2054201317097 58.068172253537625 H 0.0 **** 0.06
28991 C 142.57432002014278 85.96559688942253 56.73597129573892 C 0.0 **** -0.24
28992 H 142.75138024232635 84.89771386731063 56.86408228956009 H 0.0 **** 0.06
28993 H 142.5035301797699 86.44278675758198 57.713956761677935 H 0.0 **** 0.06
28994 H 141.64372478077794 86.11654504543654 56.189594121109906 H 0.0 **** 0.06
28995 H 143.399371691668 86.40597565584474 56.1759872038059 H 0.0 **** 0.06
28996 C 88.86570784706612 29.96596944396174 27.967336316036715 C 0.0 **** -0.24
28997 H 87.81156843335509 29.707452073339397 28.062124052318325 H 0.0 **** 0.06
28998 H 89.03261451135697 30.462064848802356 27.011125345531937 H 0.0 **** 0.06
28999 H 89.46748473743719 29.05907771082721 28.01713400498079 H 0.0 **** 0.06
29000 H 89.15020771516615 30.635553339562676 28.778847324253015 H 0.0 **** 0.06
29001 C 132.16261497147755 49.18189557094041 78.47133136959567 C 0.0 **** -0.24
29002 H 131.4919653131079 48.831577087702755 79.25580500414598 H 0.0 **** 0.06
29003 H 133.0896306123436 49.54044996587939 78.91936894403176 H 0.0 **** 0.06
29004 H 131.6859520824299 49.99417302807424 77.92218317510843 H 0.0 **** 0.06
29005 H 132.38178082639797 48.36223090397556 77.78799104226545 H 0.0 **** 0.06
29006 C 139.8616794917484 95.69851763209903 64.58109930778167 C 0.0 **** -0.24
29007 H 139.453093969413 94.91485026539662 63.94419416134566 H 0.0 **** 0.06
29008 H 140.24929730308344 95.2552782338632 65.49886627386589 H 0.0 **** 0.06
29009 H 139.07572126050277 96.4136917704153 64.82693782032756 H 0.0 **** 0.06
29010 H 140.6666889016252 96.21166824058493 64.05622013572598 H 0.0 **** 0.06
29011 C 51.184557097897994 108.36638423687126 10.595462581659113 C 0.0 **** -0.24
29012 H 51.11029920497862 107.2880581599081 10.729094346632841 H 0.0 **** 0.06
29013 H 50.896443439430584 108.86774505029254 11.520133770348664 H 0.0 **** 0.06
29014 H 50.52039330095556 108.67937606485029 9.790313881321822 H 0.0 **** 0.06
29015 H 52.211696113740345 108.63090102313501 10.343466103317027 H 0.0 **** 0.06
29016 C 38.174548398923434 144.22321786396773 42.73335226225194 C 0.0 **** -0.24
29017 H 37.313666168523405 143.57188312056383 42.88305436358576 H 0.0 **** 0.06
29018 H 37.867627304592915 145.11094875178998 42.17913635962387 H 0.0 **** 0.06
29019 H 38.94050663403415 143.68943011080108 42.17075514657449 H 0.0 **** 0.06
29020 H 38.577821172573415 144.52064411677927 43.702183858307166 H 0.0 **** 0.06
29021 C 10.273238035747312 53.4941905260624 130.45387135668346 C 0.0 **** -0.24
29022 H 10.443468938649488 54.23725298064676 129.6746739927362 H 0.0 **** 0.06
29023 H 10.95255971335635 52.65353388621703 130.30992899488666 H 0.0 **** 0.06
29024 H 9.243177923835248 53.141686612916274 130.40025180881167 H 0.0 **** 0.06
29025 H 10.452857387747315 53.94437387548517 131.43017906269836 H 0.0 **** 0.06
29026 C 46.860430877889215 11.989528793310313 110.69291990159351 C 0.0 **** -0.24
29027 H 47.7974565168375 12.406162615369595 111.06203383453371 H 0.0 **** 0.06
29028 H 46.21654213249926 12.796352858780011 110.34479916376003 H 0.0 **** 0.06
29029 H 46.362666996970376 11.44824264002142 111.4974286403876 H 0.0 **** 0.06
29030 H 47.066592649701036 11.306330403630739 109.8681864662448 H 0.0 **** 0.06
29031 C 44.63818436375283 129.1508118961844 66.62180417336461 C 0.0 **** -0.24
29032 H 44.972955815658736 130.00508002898778 66.03478896422311 H 0.0 **** 0.06
29033 H 43.5493820027948 129.09321317513627 66.59244823695681 H 0.0 **** 0.06
29034 H 44.968580477927276 129.26781966058377 67.65378502378579 H 0.0 **** 0.06
29035 H 45.06182815342822 128.23628188075702 66.20671660635762 H 0.0 **** 0.06
29036 C 128.91408823047874 74.42666650524592 57.60271246644993 C 0.0 **** -0.24
29037 H 127.87447332509285 74.72163958053522 57.74284669175637 H 0.0 **** 0.06
29038 H 129.56548758923108 75.14554173262289 58.10005258597158 H 0.0 **** 0.06
29039 H 129.14456621828316 74.40415718544767 56.537388974152805 H 0.0 **** 0.06
29040 H 129.07177648572278 73.43701422410473 58.03017079748233 H 0.0 **** 0.06
29041 C 24.65900705462647 16.524450216995575 88.57888238020544 C 0.0 **** -0.24
29042 H 24.45805367186901 17.583723453427268 88.7424546664206 H 0.0 **** 0.06
29043 H 24.074710906511655 15.931011550842328 89.28288984116887 H 0.0 **** 0.06
29044 H 25.720426889093147 16.328423564000076 88.7296682165308 H 0.0 **** 0.06
29045 H 24.381361437342463 16.255870063358827 87.55899485450797 H 0.0 **** 0.06
29046 C 0.9390567302868931 74.29580913051629 40.19732653258578 C 0.0 **** -0.24
29047 H 1.94995067708561 73.94519998139063 40.40762059097921 H 0.0 **** 0.06
29048 H 0.9421177193195263 75.38375565769269 40.11641317336216 H 0.0 **** 0.06
29049 H 0.2755255457564658 73.99338642804713 41.006989262980255 H 0.0 **** 0.06
29050 H 0.5912571275495111 73.86196053798633 39.26072808212004 H 0.0 **** 0.06
29051 C 96.88709779074452 76.66459457469489 27.784131040955657 C 0.0 **** -0.24
29052 H 97.07979045174739 75.59501878866479 27.696591891909485 H 0.0 **** 0.06
29053 H 97.17744755634521 77.16227391629957 26.8592850272057 H 0.0 **** 0.06
29054 H 97.46639312993045 77.07051269653195 28.613143262486915 H 0.0 **** 0.06
29055 H 95.82579846482724 76.82759102437609 27.967678663123507 H 0.0 **** 0.06
29056 C 107.77320718361466 132.772327905596 6.654677010158878 C 0.0 **** -0.24
29057 H 106.91572706718642 133.2889633970456 6.222466929182289 H 0.0 **** 0.06
29058 H 108.3423228805101 133.4678854623729 7.271248899177351 H 0.0 **** 0.06
29059 H 108.40946748703374 132.39176212437656 5.854681712372194 H 0.0 **** 0.06
29060 H 107.42603428316801 131.9419303491968 7.26831917650987 H 0.0 **** 0.06
29061 C 58.356668188353936 94.24119219498769 0.5462770258005776 C 0.0 **** -0.24
29062 H 58.6067135929016 94.74689868073625 1.4790064338445745 H 0.0 **** 0.06
29063 H 59.119572537801446 93.49524769846542 0.3226955572285988 H 0.0 **** 0.06
29064 H 58.31307821748398 94.97002379240499 -0.26258963878683517 H 0.0 **** 0.06
29065 H 57.38754547761839 93.75146496227786 0.6468073731450659 H 0.0 **** 0.06
29066 C 84.45695844422231 31.31086741568305 131.6589531596207 C 0.0 **** -0.24
29067 H 83.43750895043387 31.32857307823008 131.27280401519369 H 0.0 **** 0.06
29068 H 84.88544903472273 32.312384456096055 131.59813025456262 H 0.0 **** 0.06
29069 H 85.05794069163115 30.621311845103733 131.06619828075162 H 0.0 **** 0.06
29070 H 84.44579286113076 30.982577296353597 132.69778605222672 H 0.0 **** 0.06
29071 C 73.81050707944304 85.88652181914388 143.4788523005381 C 0.0 **** -0.24
29072 H 73.98061790936327 86.07441899817854 144.53991824547708 H 0.0 **** 0.06
29073 H 72.79107482615207 86.17398189398727 143.21941535262005 H 0.0 **** 0.06
29074 H 73.95421020223414 84.82622574495066 143.27034677323002 H 0.0 **** 0.06
29075 H 74.51509071263672 86.47258005080114 142.8891459923952 H 0.0 **** 0.06
29076 C 49.484852445583954 30.039763901560463 143.02462853286912 C 0.0 **** -0.24
29077 H 48.83192680602389 30.878181304609 143.26789439232485 H 0.0 **** 0.06
29078 H 50.5006649131535 30.403305555405808 142.86895130099865 H 0.0 **** 0.06
29079 H 49.12945422914636 29.55444985917461 142.11494818285757 H 0.0 **** 0.06
29080 H 49.47610901582192 29.322809514320312 143.84489544346036 H 0.0 **** 0.06
29081 C 89.88275863197606 22.196295813830005 76.50847182875754 C 0.0 **** -0.24
29082 H 90.41731621936549 23.090303239663314 76.18730239237945 H 0.0 **** 0.06
29083 H 89.23802819833867 22.44325842239408 77.35247838927611 H 0.0 **** 0.06
29084 H 90.60037269938988 21.433054086165747 76.80992501589688 H 0.0 **** 0.06
29085 H 89.27612923735413 21.819678275324776 75.68523378296365 H 0.0 **** 0.06
29086 C 44.00896652577484 69.02667278757099 102.27352536686821 C 0.0 **** -0.24
29087 H 43.09211428766538 68.5608550233204 102.63399680264456 H 0.0 **** 0.06
29088 H 44.259912129245436 68.62305638602867 101.29245196835532 H 0.0 **** 0.06
29089 H 44.82066388079464 68.8179674694934 102.97117458757266 H 0.0 **** 0.06
29090 H 43.86276688568803 70.10406951166593 102.19700833175175 H 0.0 **** 0.06
29091 C 119.74752305283951 95.70962650070811 134.99496469076783 C 0.0 **** -0.24
29092 H 119.4916129255449 96.75898334001806 135.14177794277006 H 0.0 **** 0.06
29093 H 119.3635609877837 95.37379121844717 134.03110747022407 H 0.0 **** 0.06
29094 H 119.30409751390553 95.11221499194562 135.79136042320937 H 0.0 **** 0.06
29095 H 120.83150717521195 95.59531767548002 135.01447948909802 H 0.0 **** 0.06
29096 C 138.51053215818433 120.12871770153144 94.21918795481716 C 0.0 **** -0.24
29097 H 139.36880904547013 120.55158686627188 94.7405000612498 H 0.0 **** 0.06
29098 H 138.54397767492037 120.41925345639713 93.16902354822012 H 0.0 **** 0.06
29099 H 137.59169886119753 120.50231946688525 94.67146110457755 H 0.0 **** 0.06
29100 H 138.53781511262457 119.04107166791836 94.29651655290452 H 0.0 **** 0.06
29101 C 86.87834374505358 120.49356767793567 71.26092614579849 C 0.0 **** -0.24
29102 H 86.612983859753 121.49596600174003 71.5973137793944 H 0.0 **** 0.06
29103 H 86.37078158235404 119.75628079521995 71.88267978374674 H 0.0 **** 0.06
29104 H 87.95661944110776 120.35763495779996 71.34145995984676 H 0.0 **** 0.06
29105 H 86.57278590618044 120.36738164319 70.22220077587323 H 0.0 **** 0.06
29106 C 83.23299107805542 58.27521503418288 32.82690755170319 C 0.0 **** -0.24
29107 H 84.02930749879602 58.26234573363496 33.57153058641825 H 0.0 **** 0.06
29108 H 82.34653778727119 57.787186801688875 33.234396186692024 H 0.0 **** 0.06
29109 H 83.56251656022872 57.744016430396755 31.934202181499018 H 0.0 **** 0.06
29110 H 82.99433295502314 59.306864331133426 32.56801774371783 H 0.0 **** 0.06
29111 C 144.78044445376628 117.2709893963572 52.60604041508813 C 0.0 **** -0.24
29112 H 145.30381097396028 117.66615439015375 53.4770180465072 H 0.0 **** 0.06
29113 H 144.32292608563714 116.31424212249222 52.860898337088 H 0.0 **** 0.06
29114 H 145.48775453888882 117.13091399258893 51.78930779586372 H 0.0 **** 0.06
29115 H 144.00483412773733 117.97429360919615 52.29923461260634 H 0.0 **** 0.06
29116 C 44.2579731411098 85.60877589325437 100.25793563936648 C 0.0 **** -0.24
29117 H 43.81736770472676 85.54297338487982 99.26370290709103 H 0.0 **** 0.06
29118 H 44.13607947786997 84.6562630164851 100.77281913431987 H 0.0 **** 0.06
29119 H 43.75938286260208 86.3954297066083 100.82567103554015 H 0.0 **** 0.06
29120 H 45.318868163795045 85.84140063125128 100.17056664529123 H 0.0 **** 0.06
29121 C 88.58697053742391 53.57172376910847 115.17822009950524 C 0.0 **** -0.24
29122 H 87.97458706895398 54.109368419138946 115.90209413053603 H 0.0 **** 0.06
29123 H 88.26803811996128 52.53001830307801 115.1345192863906 H 0.0 **** 0.06
29124 H 89.63347888107117 53.61927268414257 115.48100439266526 H 0.0 **** 0.06
29125 H 88.47290014404686 54.02875915126714 114.19594598174686 H 0.0 **** 0.06
29126 C 41.48347936495068 135.02663979081169 130.45705200252914 C 0.0 **** -0.24
29127 H 41.259529317478524 133.96871694511776 130.5921649319923 H 0.0 **** 0.06
29128 H 40.555499694794065 135.59891329805015 130.47272667861935 H 0.0 **** 0.06
29129 H 41.98409077380407 135.1720666150782 129.4993275162552 H 0.0 **** 0.06
29130 H 42.134442479928424 135.3657742229186 131.26182320163846 H 0.0 **** 0.06
29131 C 96.36065306354953 107.7531047572923 63.424518042441264 C 0.0 **** -0.24
29132 H 97.26530168569312 107.39505349016679 63.9154264190346 H 0.0 **** 0.06
29133 H 96.59200674359218 108.64700845235905 62.844591676365255 H 0.0 **** 0.06
29134 H 95.60953921503983 107.99238678810417 64.17705573381782 H 0.0 **** 0.06
29135 H 95.97576460987321 106.97797029853928 62.76099834054742 H 0.0 **** 0.06
29136 C 50.116268872562586 15.885640244109268 14.712871624561686 C 0.0 **** -0.24
29137 H 50.33043219969201 14.927933815051063 14.238881808867617 H 0.0 **** 0.06
29138 H 49.83637728557022 15.72089616676633 15.753934560649519 H 0.0 **** 0.06
29139 H 49.29506382404438 16.374744855572892 14.189298489759445 H 0.0 **** 0.06
29140 H 51.00231947703804 16.518202990535222 14.670639567702196 H 0.0 **** 0.06
29141 C 79.7134437866543 131.22440685963838 89.09933512158412 C 0.0 **** -0.24
29142 H 80.56879311222644 131.5400198133259 88.50176345149231 H 0.0 **** 0.06
29143 H 79.09845384920364 132.09134995643475 89.33984275198284 H 0.0 **** 0.06
29144 H 80.06610277506255 130.76246253076346 90.02145928355785 H 0.0 **** 0.06
29145 H 79.1228352730446 130.50381301230485 88.53383624731414 H 0.0 **** 0.06
29146 C 100.05032551920364 55.17749947988246 76.11391090320126 C 0.0 **** -0.24
29147 H 100.38551288129938 54.565816476004215 75.27660617437067 H 0.0 **** 0.06
29148 H 99.97792835087523 56.21839891429707 75.79690465392157 H 0.0 **** 0.06
29149 H 100.76660102346439 55.09650156541602 76.93239407251843 H 0.0 **** 0.06
29150 H 99.07351841559425 54.8302012373983 76.44996698786129 H 0.0 **** 0.06
29151 C 75.77964390333563 1.470691106323784 58.96738262992886 C 0.0 **** -0.24
29152 H 75.44747599127783 1.6980506993075437 57.95431106258299 H 0.0 **** 0.06
29153 H 75.11342329661142 0.7287451772918985 59.409436144497136 H 0.0 **** 0.06
29154 H 75.76209167546386 2.379140667360673 59.56909368250278 H 0.0 **** 0.06
29155 H 76.79483280266533 1.0748848358038572 58.935401390342435 H 0.0 **** 0.06
29156 C 14.02468030585456 35.884057212911756 54.17926257928899 C 0.0 **** -0.24
29157 H 15.034818461387488 36.2493208199995 53.99914534219634 H 0.0 **** 0.06
29158 H 13.91396124714359 35.6266327522697 55.23365336454508 H 0.0 **** 0.06
29159 H 13.843551448708581 34.99961649309583 53.56857211630691 H 0.0 **** 0.06
29160 H 13.305059863172033 36.660043063115154 53.91764207073929 H 0.0 **** 0.06
29161 C 44.90453944238523 77.54072572646913 83.30348266517655 C 0.0 **** -0.24
29162 H 45.05019646767077 76.46864493023992 83.43101555713369 H 0.0 **** 0.06
29163 H 44.496558078556035 77.73557497277933 82.31041520351324 H 0.0 **** 0.06
29164 H 45.85988283588448 78.05287655821556 83.41041417927491 H 0.0 **** 0.06
29165 H 44.20959135256399 77.90510498373268 84.05989776049721 H 0.0 **** 0.06
29166 C 136.1949845157905 16.314526129895768 81.79200294896167 C 0.0 **** -0.24
29167 H 137.27661501491662 16.341741944721605 81.66249762035125 H 0.0 **** 0.06
29168 H 135.8598083314271 15.27717590268847 81.82076714194103 H 0.0 **** 0.06
29169 H 135.71493032019512 16.82871747356174 80.95962976955425 H 0.0 **** 0.06
29170 H 135.92870705699394 16.808775052991365 82.72688222494703 H 0.0 **** 0.06
29171 C 139.84366414454396 89.41882913732755 111.90166590316456 C 0.0 **** -0.24
29172 H 140.8786035648453 89.74999617482203 111.8131520172354 H 0.0 **** 0.06
29173 H 139.70344521190455 88.91780411183618 112.85933727630511 H 0.0 **** 0.06
29174 H 139.61400976519352 88.72634152014106 111.09177969720865 H 0.0 **** 0.06
29175 H 139.18027412026223 90.28174734446165 111.84102967218784 H 0.0 **** 0.06
29176 C 117.6088145478054 132.6371824173817 115.05902920596324 C 0.0 **** -0.24
29177 H 117.09031462761519 132.0354864188575 115.80550469430878 H 0.0 **** 0.06
29178 H 116.89416887724482 132.98488593126726 114.31245518610322 H 0.0 **** 0.06
29179 H 118.37621599203865 132.03329709881817 114.57450010189174 H 0.0 **** 0.06
29180 H 118.07386402427917 133.49534557145782 115.54485521368358 H 0.0 **** 0.06
29181 C 64.07338148147869 61.497605532188885 9.217675349269214 C 0.0 **** -0.24
29182 H 63.97962311297624 62.03947192520897 10.158846471702972 H 0.0 **** 0.06
29183 H 63.982712807785106 62.19605250794601 8.386384265449564 H 0.0 **** 0.06
29184 H 63.28524461316488 60.747228594186396 9.150767574451365 H 0.0 **** 0.06
29185 H 65.04687365611173 61.008017388279995 9.176707390935402 H 0.0 **** 0.06
29186 C 134.19395550176984 63.736925297964845 13.579897486676607 C 0.0 **** -0.24
29187 H 133.11638161288516 63.888881522918695 13.52456502018044 H 0.0 **** 0.06
29188 H 134.41957640595646 62.67854132317703 13.442782412145391 H 0.0 **** 0.06
29189 H 134.55750823604274 64.06261811006475 14.553673347623317 H 0.0 **** 0.06
29190 H 134.68270829841373 64.31694463401153 12.797401385633798 H 0.0 **** 0.06
29191 C 19.98016724126272 36.21235066862637 140.43307740516877 C 0.0 **** -0.24
29192 H 19.50563589877305 37.04896762278053 140.94735849421508 H 0.0 **** 0.06
29193 H 19.212750114120496 35.564631184188066 140.0085572708929 H 0.0 **** 0.06
29194 H 20.583300261075948 35.645925593397436 141.14248143704302 H 0.0 **** 0.06
29195 H 20.61809254051704 36.59212935743792 139.63537549931897 H 0.0 **** 0.06
29196 C 75.51635611664682 100.76649406551712 54.18066104862689 C 0.0 **** -0.24
29197 H 76.14008117934941 99.89788409175331 54.39175262804869 H 0.0 **** 0.06
29198 H 75.23769523523839 101.25023446250893 55.11725075115126 H 0.0 **** 0.06
29199 H 74.61620164190987 100.4468656303836 53.65503712555247 H 0.0 **** 0.06
29200 H 76.07052615444718 101.46895623618857 53.55869695513911 H 0.0 **** 0.06
29201 C 106.72422180190793 1.1743698118442012 109.74097963755696 C 0.0 **** -0.24
29202 H 106.63758062534836 0.486675445685421 110.58244899475898 H 0.0 **** 0.06
29203 H 105.93970314994974 1.9283285482500219 109.80640600369247 H 0.0 **** 0.06
29204 H 106.62064095914727 0.6211517709862164 108.80752010135109 H 0.0 **** 0.06
29205 H 107.69919056905664 1.660198420987797 109.76918124885498 H 0.0 **** 0.06
29206 C 55.1799872763785 60.44049678299541 126.7433882383232 C 0.0 **** -0.24
29207 H 56.08165339793922 59.833304699283275 126.81279144556376 H 0.0 **** 0.06
29208 H 54.96845202186101 60.88906367027025 127.71471441336669 H 0.0 **** 0.06
29209 H 54.34103073664221 59.81273014586965 126.44283229075515 H 0.0 **** 0.06
29210 H 55.327919081724346 61.227607490019494 126.0040420336098 H 0.0 **** 0.06
29211 C 85.66468872674373 140.23647224996017 60.378000612239376 C 0.0 **** -0.24
29212 H 86.19711675447476 140.28979524188907 59.4274560173217 H 0.0 **** 0.06
29213 H 84.59425892259998 140.3331030569075 60.19999959282251 H 0.0 **** 0.06
29214 H 86.00079994405763 141.04439293813726 61.0277492543442 H 0.0 **** 0.06
29215 H 85.86913131833381 139.27763920461393 60.85519485773524 H 0.0 **** 0.06
29216 C 130.1487788310619 44.044408004455505 54.74103968984963 C 0.0 **** -0.24
29217 H 130.030425801259 44.22299556572685 55.80918428882069 H 0.0 **** 0.06
29218 H 131.00091254071097 44.61339442160917 54.36990026401179 H 0.0 **** 0.06
29219 H 129.245365802775 44.35931724613161 54.2177099524331 H 0.0 **** 0.06
29220 H 130.3176294768922 42.98130119660698 54.56737534611142 H 0.0 **** 0.06
29221 C 58.72664540945213 55.1363303992412 14.794064033319444 C 0.0 **** -0.24
29222 H 57.8051726351397 55.249411108960985 15.366163345961581 H 0.0 **** 0.06
29223 H 58.70788256448701 54.18603562959605 14.260809226996855 H 0.0 **** 0.06
29224 H 59.579123632503666 55.156718135793966 15.471989586288885 H 0.0 **** 0.06
29225 H 58.811517513526994 55.954257103746116 14.077975653857209 H 0.0 **** 0.06
29226 C 16.44610090743913 92.10893433179737 46.37973100997391 C 0.0 **** -0.24
29227 H 15.869727983647437 92.10187794796103 45.4542012212987 H 0.0 **** 0.06
29228 H 15.796823382506972 92.39147296148208 47.20871625518237 H 0.0 **** 0.06
29229 H 17.26179442242946 92.82747394454572 46.2943035665421 H 0.0 **** 0.06
29230 H 16.854545969514305 91.11505999333728 46.560062051928995 H 0.0 **** 0.06
29231 C 59.03466413653604 45.88492694216876 112.80001925579913 C 0.0 **** -0.24
29232 H 60.01463814136193 46.264875418774736 113.0887959885778 H 0.0 **** 0.06
29233 H 58.27194605712606 46.622311904497536 113.0514361816154 H 0.0 **** 0.06
29234 H 58.83319088676345 44.957087524836965 113.33509161315826 H 0.0 **** 0.06
29235 H 59.019160642385174 45.69675053218708 111.72679926511384 H 0.0 **** 0.06
29236 C 35.650540944099504 134.43200782373572 113.6215684763791 C 0.0 **** -0.24
29237 H 35.41538447286956 133.68507719218826 114.37970695758291 H 0.0 **** 0.06
29238 H 36.08795777474879 133.9409589630629 112.75252106006481 H 0.0 **** 0.06
29239 H 36.360741210734744 135.15069455858836 114.02972754836573 H 0.0 **** 0.06
29240 H 34.73841583676412 134.94967381964454 113.32611871069697 H 0.0 **** 0.06
29241 C 42.16083433438223 139.214260669154 46.978881909887264 C 0.0 **** -0.24
29242 H 42.0924367517721 138.3503890812928 46.31737713593657 H 0.0 **** 0.06
29243 H 41.70981068867076 140.08038788555248 46.49413946998237 H 0.0 **** 0.06
29244 H 43.208379352339406 139.4235652339014 47.19574577209863 H 0.0 **** 0.06
29245 H 41.63269571750429 139.00215491012818 47.90910322445234 H 0.0 **** 0.06
29246 C 79.55579002322466 109.06749815802068 127.66193049753338 C 0.0 **** -0.24
29247 H 79.98319189710942 110.00481897551582 128.017234863814 H 0.0 **** 0.06
29248 H 79.51103680806487 108.35340632069683 128.4840465970169 H 0.0 **** 0.06
29249 H 80.17814877820113 108.66404938320231 126.86356245207878 H 0.0 **** 0.06
29250 H 78.54997532164514 109.24816202536205 127.28180514987821 H 0.0 **** 0.06
29251 C 33.21840518380798 132.55218689112792 138.69108066524038 C 0.0 **** -0.24
29252 H 33.16803452885308 133.63577785856575 138.80142260143063 H 0.0 **** 0.06
29253 H 32.21401783194352 132.1537396959063 138.55363356959566 H 0.0 **** 0.06
29254 H 33.66359776863319 132.1174425371283 139.58706330329503 H 0.0 **** 0.06
29255 H 33.83058546627722 132.30366703867 137.82477815845525 H 0.0 **** 0.06
29256 C 66.32381475420203 24.123638477653948 136.25752149216697 C 0.0 **** -0.24
29257 H 66.91047187059276 23.56865153965368 136.9899119914327 H 0.0 **** 0.06
29258 H 65.8341439588575 24.96564695289708 136.74768388983793 H 0.0 **** 0.06
29259 H 65.57055650933088 23.46736244592499 135.82334109429297 H 0.0 **** 0.06
29260 H 66.98134927148855 24.494045395603905 135.4709034274866 H 0.0 **** 0.06
29261 C 57.39762284465186 50.14191819003631 136.2743085139938 C 0.0 **** -0.24
29262 H 57.158160793138364 49.76259423577105 137.26747926407796 H 0.0 **** 0.06
29263 H 58.11417510031819 50.95912346123188 136.36058906135722 H 0.0 **** 0.06
29264 H 56.48824730391644 50.50377177480539 135.79576598378597 H 0.0 **** 0.06
29265 H 57.829257984547326 49.34111887004778 135.67460157412089 H 0.0 **** 0.06
29266 C 21.2147429385695 18.88546173738888 23.849853639305366 C 0.0 **** -0.24
29267 H 20.746418077075646 18.863409623277903 24.83458786057531 H 0.0 **** 0.06
29268 H 21.93420941683715 19.704103998055473 23.809137651757396 H 0.0 **** 0.06
29269 H 20.450776603614294 19.033551194135725 23.087855105239328 H 0.0 **** 0.06
29270 H 21.72848627747863 17.940108963686413 23.670948977060448 H 0.0 **** 0.06
29271 C 44.50366561781112 98.01505064962663 103.84132140163581 C 0.0 **** -0.24
29272 H 44.79532451059484 97.90863673966115 104.88671181468817 H 0.0 **** 0.06
29273 H 44.173427816407155 97.05066868433471 103.45598480477275 H 0.0 **** 0.06
29274 H 45.35646562520492 98.36669212212365 103.26144100156995 H 0.0 **** 0.06
29275 H 43.68963316667586 98.73527704069949 103.76375865641921 H 0.0 **** 0.06
29276 C 87.69633663975108 47.553203156373286 39.64083395011352 C 0.0 **** -0.24
29277 H 87.32760523768495 46.561586673606655 39.37935014476784 H 0.0 **** 0.06
29278 H 88.10437772772296 48.03453350970932 38.75184043232997 H 0.0 **** 0.06
29279 H 88.47678883038859 47.462786224635636 40.39598958207415 H 0.0 **** 0.06
29280 H 86.87574725132228 48.15339676450327 40.03591957907989 H 0.0 **** 0.06
29281 C 122.08288748126058 23.05151930377521 83.80104801463156 C 0.0 **** -0.24
29282 H 121.187335906429 23.67202143690855 83.80608095851375 H 0.0 **** 0.06
29283 H 121.81203398960774 22.022139288046503 84.04205464376417 H 0.0 **** 0.06
29284 H 122.78854678428489 23.425124274276456 84.54262278687295 H 0.0 **** 0.06
29285 H 122.54266254449338 23.084548673199663 82.81359025625329 H 0.0 **** 0.06
29286 C 15.67980453881637 92.98480714779433 128.04127220994394 C 0.0 **** -0.24
29287 H 16.071142411666358 93.99542848865728 128.15694442534328 H 0.0 **** 0.06
29288 H 16.136034930294613 92.51555328011263 127.1700813584321 H 0.0 **** 0.06
29289 H 14.599059019650724 93.02778240841755 127.90739117244117 H 0.0 **** 0.06
29290 H 15.911460635702838 92.40203224482583 128.9327281856029 H 0.0 **** 0.06
29291 C 115.19337304033986 114.73358562626291 86.18591337886224 C 0.0 **** -0.24
29292 H 114.63369177875545 115.50038746130033 85.65109220227589 H 0.0 **** 0.06
29293 H 115.14382000590656 114.92803110512611 87.25719174613894 H 0.0 **** 0.06
29294 H 116.23344399651073 114.74998856154414 85.86082688483347 H 0.0 **** 0.06
29295 H 114.76175783816116 113.75512772515074 85.97368148649784 H 0.0 **** 0.06
29296 C 6.562918980304985 136.45440007722596 60.30283751741112 C 0.0 **** -0.24
29297 H 6.761403752113779 137.47873773934163 60.61587742326721 H 0.0 **** 0.06
29298 H 5.5452811598832135 136.3828353418785 59.91670706549648 H 0.0 **** 0.06
29299 H 6.675418352793098 135.78454758399863 61.1554936245831 H 0.0 **** 0.06
29300 H 7.2682463319079 136.16998308959506 59.521857229748704 H 0.0 **** 0.06
29301 C 68.70829737713264 106.47809457132031 69.42754810931103 C 0.0 **** -0.24
29302 H 68.13572459844714 105.66092777167056 68.98889593805336 H 0.0 **** 0.06
29303 H 69.1348565724695 106.15339266904463 70.37691466087455 H 0.0 **** 0.06
29304 H 68.051958259974 107.3318304219814 69.59591067101053 H 0.0 **** 0.06
29305 H 69.5111287792825 106.7643079909527 68.74702656042501 H 0.0 **** 0.06
29306 C 24.883895529336684 109.28856781724866 120.99325479247975 C 0.0 **** -0.24
29307 H 24.200055690377184 108.46587014937379 121.2011718448858 H 0.0 **** 0.06
29308 H 25.01093014723324 109.39295437948218 119.91544795723794 H 0.0 **** 0.06
29309 H 25.849597625151887 109.08408524490736 121.45524637710994 H 0.0 **** 0.06
29310 H 24.475167194727504 110.21347554396672 121.40186194101798 H 0.0 **** 0.06
29311 C 124.35044026793702 131.865633289992 142.82717105743723 C 0.0 **** -0.24
29312 H 123.96512166187514 131.1304865069651 142.1212010574962 H 0.0 **** 0.06
29313 H 123.91952601599806 131.68423010545996 143.81222218517274 H 0.0 **** 0.06
29314 H 124.0821943205932 132.86707649946385 142.49099625814125 H 0.0 **** 0.06
29315 H 125.4355722642207 131.78003564301792 142.884542575639 H 0.0 **** 0.06
29316 C 36.64234865071873 32.648220707532175 22.87188734206643 C 0.0 **** -0.24
29317 H 37.032798507074546 32.04510635827478 23.6912870409181 H 0.0 **** 0.06
29318 H 37.37956029973256 33.40136874197623 22.592643819563193 H 0.0 **** 0.06
29319 H 35.722699221590176 33.140078275623125 23.189805546906143 H 0.0 **** 0.06
29320 H 36.4345866478896 32.006406108879446 22.01624849971978 H 0.0 **** 0.06
29321 C 22.299433205061376 8.41655111901379 0.9971865372374857 C 0.0 **** -0.24
29322 H 22.832720705599314 7.490729936057313 0.7834192862897496 H 0.0 **** 0.06
29323 H 22.971334844743154 9.114863033240365 1.497544021728011 H 0.0 **** 0.06
29324 H 21.448347561296544 8.20394473373825 1.6431808049652474 H 0.0 **** 0.06
29325 H 21.947571589051336 8.856039676108818 0.06383981314622744 H 0.0 **** 0.06
29326 C 67.71738715538501 100.28645469647597 26.72487576384347 C 0.0 **** -0.24
29327 H 67.73722480963332 101.26324686190824 27.208762583185745 H 0.0 **** 0.06
29328 H 67.90919081021133 100.40615332106984 25.658163744363748 H 0.0 **** 0.06
29329 H 66.73851979274147 99.82860687529708 26.870013591400237 H 0.0 **** 0.06
29330 H 68.48521484132968 99.6485479817149 27.16287299459715 H 0.0 **** 0.06
29331 C 80.63747415956911 13.584902690175852 86.85620325149891 C 0.0 **** -0.24
29332 H 80.74289064300305 14.414805509037414 87.55487811731727 H 0.0 **** 0.06
29333 H 79.66786544197183 13.649026870006992 86.36044423247634 H 0.0 **** 0.06
29334 H 80.70699430985647 12.642168864935478 87.39920490363848 H 0.0 **** 0.06
29335 H 81.43104775334399 13.634935241758946 86.11009626991608 H 0.0 **** 0.06
29336 C 43.30650316530007 97.18083341534413 133.81305683734007 C 0.0 **** -0.24
29337 H 43.08268017120666 96.51775152613374 134.64930716770417 H 0.0 **** 0.06
29338 H 42.93133899982898 96.73859578693805 132.89003374241832 H 0.0 **** 0.06
29339 H 44.384620749521886 97.31899839046378 133.7376594408291 H 0.0 **** 0.06
29340 H 42.82665986319411 98.14573155250343 133.9758600092989 H 0.0 **** 0.06
29341 C 8.398060093420497 9.54224200153174 46.78430615921383 C 0.0 **** -0.24
29342 H 8.455769075596322 8.528854463636435 46.385553955928586 H 0.0 **** 0.06
29343 H 7.4935259442256665 10.026069582159401 46.415091095967284 H 0.0 **** 0.06
29344 H 9.271412037782511 10.108537196065818 46.4629512631583 H 0.0 **** 0.06
29345 H 8.370639922549799 9.502475623869657 47.87350801915524 H 0.0 **** 0.06
29346 C 75.89233530372807 34.34654964278253 19.600158989499562 C 0.0 **** -0.24
29347 H 76.50666626990355 34.20463162392789 18.711350454955834 H 0.0 **** 0.06
29348 H 76.33731534619486 33.81062362851822 20.438719648492736 H 0.0 **** 0.06
29349 H 74.88962706274863 33.96164280574294 19.414350467963118 H 0.0 **** 0.06
29350 H 75.8357325360654 35.40930051294118 19.83621538658616 H 0.0 **** 0.06
29351 C 63.566203546 85.20990715809415 121.39985923668036 C 0.0 **** -0.24
29352 H 63.75317388889408 85.5704534034029 120.3887893313393 H 0.0 **** 0.06
29353 H 64.17246001902339 84.32350146557181 121.58827357375577 H 0.0 **** 0.06
29354 H 62.51057634798411 84.95814225162655 121.50647345113225 H 0.0 **** 0.06
29355 H 63.82774493747252 85.9886510248765 122.11731798255323 H 0.0 **** 0.06
29356 C 101.30028651878358 112.45358347908184 90.92309590767188 C 0.0 **** -0.24
29357 H 100.46391562740094 111.89453798426841 90.50394826416064 H 0.0 **** 0.06
29358 H 101.3937758104007 113.40903498172715 90.40546849456537 H 0.0 **** 0.06
29359 H 102.21875180700678 111.88113430626474 90.79739264381965 H 0.0 **** 0.06
29360 H 101.12354590935733 112.6298389025895 91.98367246616888 H 0.0 **** 0.06
29361 C 67.33033245303028 43.883540531544384 57.9426928262196 C 0.0 **** -0.24
29362 H 66.85233075291427 44.04693527551848 58.90828042157963 H 0.0 **** 0.06
29363 H 67.5040232651258 42.816585643511175 57.79980579614097 H 0.0 **** 0.06
29364 H 68.28078497721964 44.41495775517326 57.91255036986833 H 0.0 **** 0.06
29365 H 66.68140256089072 44.255984303453616 57.14906911409598 H 0.0 **** 0.06
29366 C 139.14858682873077 45.243428942630146 29.536980316702483 C 0.0 **** -0.24
29367 H 138.2587117742534 44.638635671551896 29.70962259121883 H 0.0 **** 0.06
29368 H 138.95792375323902 45.945906814035965 28.723681806226878 H 0.0 **** 0.06
29369 H 139.9826104816934 44.59541339766842 29.269097393902825 H 0.0 **** 0.06
29370 H 139.39347325402582 45.7952783305099 30.4444976927902 H 0.0 **** 0.06
29371 C 117.07934041216403 137.38756010729284 123.03793873937279 C 0.0 **** -0.24
29372 H 116.6876230859733 136.50574554586856 123.54424050762088 H 0.0 **** 0.06
29373 H 118.16846462765314 137.37290997397506 123.0737115651062 H 0.0 **** 0.06
29374 H 116.71080389022468 138.28471266831573 123.53519119490726 H 0.0 **** 0.06
29375 H 116.74909978937423 137.38668416470145 121.99890684188621 H 0.0 **** 0.06
29376 C 69.38149754382815 125.57797874833366 98.64720197008917 C 0.0 **** -0.24
29377 H 70.05332049760088 125.85067773457337 99.46103246533394 H 0.0 **** 0.06
29378 H 68.66869403638131 124.8325756377132 98.99967360335445 H 0.0 **** 0.06
29379 H 69.96169971188806 125.16463274894573 97.8216303698433 H 0.0 **** 0.06
29380 H 68.84521873579124 126.46270808589261 98.30724338423344 H 0.0 **** 0.06
29381 C 67.88883120705088 86.82114705835241 85.09453850736887 C 0.0 **** -0.24
29382 H 68.27105661023077 87.28357038747382 86.00417869479604 H 0.0 **** 0.06
29383 H 68.50887987469793 87.12022073943527 84.24839930126957 H 0.0 **** 0.06
29384 H 66.86287086729536 87.14631018472079 84.92562976136978 H 0.0 **** 0.06
29385 H 67.91479418367945 85.73745177126708 85.19978231742584 H 0.0 **** 0.06
29386 C 34.29089700920596 138.17654598504294 59.95280139209153 C 0.0 **** -0.24
29387 H 34.358278545652944 138.84895988378523 60.808141781558064 H 0.0 **** 0.06
29388 H 34.533563482505066 138.72416090773177 59.04118258439466 H 0.0 **** 0.06
29389 H 33.277834312812985 137.78151116023125 59.87994305469813 H 0.0 **** 0.06
29390 H 34.993492401558974 137.35334741370787 60.08116302509795 H 0.0 **** 0.06
29391 C 92.54798589701012 91.21306703221362 105.17759512423997 C 0.0 **** -0.24
29392 H 91.8936797952141 90.93683017297462 104.35043453421301 H 0.0 **** 0.06
29393 H 92.68512873005105 90.35375890137479 105.83474983840655 H 0.0 **** 0.06
29394 H 92.09915310197081 92.03250313120276 105.7377401380101 H 0.0 **** 0.06
29395 H 93.51567020346407 91.52840131744304 104.78510009676936 H 0.0 **** 0.06
29396 C 116.12851731968568 18.28992690197927 62.39056727157714 C 0.0 **** -0.24
29397 H 115.95680387444189 17.441110117351997 63.05258045963156 H 0.0 **** 0.06
29398 H 115.71310657209644 18.07267592315847 61.406125879837745 H 0.0 **** 0.06
29399 H 117.19963507197879 18.47005893949263 62.30128071494683 H 0.0 **** 0.06
29400 H 115.64385270675386 19.174617728495093 62.8022822294262 H 0.0 **** 0.06
29401 C 8.030364311298115 124.48720731491535 4.4888188070201736 C 0.0 **** -0.24
29402 H 8.365416614689678 124.29435828389455 5.508003827234621 H 0.0 **** 0.06
29403 H 8.815276970420541 125.0097705199309 3.941876653198431 H 0.0 **** 0.06
29404 H 7.131879776905919 125.10321319503518 4.512295561591582 H 0.0 **** 0.06
29405 H 7.809977957104223 123.5412497206305 3.9939632834300163 H 0.0 **** 0.06
29406 C 38.891652591948905 122.75068647344412 143.36577883096305 C 0.0 **** -0.24
29407 H 38.087526648541605 123.4782677853581 143.4679048548497 H 0.0 **** 0.06
29408 H 38.80351416705369 121.99888581879893 144.15002961141641 H 0.0 **** 0.06
29409 H 39.85326509800942 123.25703384690874 143.45428113413124 H 0.0 **** 0.06
29410 H 38.82353136089305 122.26787223908767 142.39105435817373 H 0.0 **** 0.06
29411 C 86.66969171510449 121.59140634084527 134.06728435326144 C 0.0 **** -0.24
29412 H 87.01339817746609 121.63460692562053 135.10024777278943 H 0.0 **** 0.06
29413 H 85.58203628725352 121.6555794349007 134.04352804664646 H 0.0 **** 0.06
29414 H 86.98836757209155 120.65103504756267 133.61751949575222 H 0.0 **** 0.06
29415 H 87.09496482360686 122.42440395529717 133.5078420978576 H 0.0 **** 0.06
29416 C 70.31273001958941 23.290892258269878 133.1769806212804 C 0.0 **** -0.24
29417 H 70.88870025078661 24.09110043717805 133.64328644512673 H 0.0 **** 0.06
29418 H 70.99393096101849 22.531808758619817 132.79032898738095 H 0.0 **** 0.06
29419 H 69.7207196049859 23.700449823677914 132.35812703627738 H 0.0 **** 0.06
29420 H 69.6497326494765 22.842590047478573 133.9169897521011 H 0.0 **** 0.06
29421 C 52.287391157371076 140.18601497683008 120.39830856615806 C 0.0 **** -0.24
29422 H 51.73010960402371 141.05900383675447 120.05925606802658 H 0.0 **** 0.06
29423 H 53.34791317390318 140.32710960250193 120.18788687057985 H 0.0 **** 0.06
29424 H 51.92698961971041 139.29990384998257 119.87401877970278 H 0.0 **** 0.06
29425 H 52.14384249807131 140.056420883846 121.47070635656793 H 0.0 **** 0.06
29426 C 142.46447839452088 73.05297955877819 51.70403040085674 C 0.0 **** -0.24
29427 H 142.39996024515807 73.76897896724282 52.52348336561468 H 0.0 **** 0.06
29428 H 143.4758408816679 72.6512473691358 51.65166614771201 H 0.0 **** 0.06
29429 H 142.22162977496305 73.55170476864927 50.76561118775868 H 0.0 **** 0.06
29430 H 141.75828218352444 72.23975944760846 51.87568680212408 H 0.0 **** 0.06
29431 C 136.97968280351012 118.47926129326966 51.260374569047485 C 0.0 **** -0.24
29432 H 137.96294789279733 118.88179959334992 51.019961354019614 H 0.0 **** 0.06
29433 H 136.61105925759182 118.94265168746385 52.17658470088267 H 0.0 **** 0.06
29434 H 137.05297923554104 117.40091651899122 51.40275467090072 H 0.0 **** 0.06
29435 H 136.2897571780075 118.6917034552199 50.44322165253524 H 0.0 **** 0.06
29436 C 22.416323673993332 85.44518234778207 57.02001845257783 C 0.0 **** -0.24
29437 H 22.009188885290968 85.01242754814564 56.10577697610532 H 0.0 **** 0.06
29438 H 21.6030483350294 85.83690633024338 57.63065862931907 H 0.0 **** 0.06
29439 H 23.100507174461995 86.25474157178155 56.76465454905207 H 0.0 **** 0.06
29440 H 22.953253683336328 84.67786075868634 57.576971416629505 H 0.0 **** 0.06
29441 C 53.626879310195065 28.242721052586425 90.92734854607257 C 0.0 **** -0.24
29442 H 53.27608329226818 27.507120340207017 91.65108374344182 H 0.0 **** 0.06
29443 H 53.846029882909846 29.180743406585243 91.43823113703792 H 0.0 **** 0.06
29444 H 52.854566819756016 28.40952677839372 90.17579601436935 H 0.0 **** 0.06
29445 H 54.530740174084684 27.873148045634224 90.44207618074414 H 0.0 **** 0.06
29446 C 30.51892585707037 76.38615073945553 127.86948389868117 C 0.0 **** -0.24
29447 H 31.573168958086697 76.14946411498991 128.00798934259507 H 0.0 **** 0.06
29448 H 30.255781782581025 76.26680343815295 126.81773945159571 H 0.0 **** 0.06
29449 H 30.334634968323968 77.41529738812525 128.1755539604834 H 0.0 **** 0.06
29450 H 29.91190938721114 75.7127376703065 128.47423072280117 H 0.0 **** 0.06
29451 C 42.48134483483517 67.31122916158216 16.814986383922523 C 0.0 **** -0.24
29452 H 42.388119580520424 68.39424003987921 16.878965136623364 H 0.0 **** 0.06
29453 H 43.409267302493745 66.9976408275997 17.293224971537676 H 0.0 **** 0.06
29454 H 42.49080635627449 67.0083800760878 15.768492352685115 H 0.0 **** 0.06
29455 H 41.63622777977643 66.8433182325316 17.32107775325165 H 0.0 **** 0.06
29456 C 118.40512669145755 126.45077030326306 85.71146693715849 C 0.0 **** -0.24
29457 H 118.20422901817494 125.5755698881617 85.09432334336057 H 0.0 **** 0.06
29458 H 119.46048544299776 126.71443689387112 85.63523193762103 H 0.0 **** 0.06
29459 H 118.16112435508569 126.22659779690974 86.75003829126868 H 0.0 **** 0.06
29460 H 117.79664920503865 127.28624606685959 85.36728496020277 H 0.0 **** 0.06
29461 C 4.61416649421335 101.59609710890601 29.704875388088197 C 0.0 **** -0.24
29462 H 4.446319170442479 101.98288767979622 30.71033411617121 H 0.0 **** 0.06
29463 H 4.325242237576475 102.35097931502816 28.97302461000598 H 0.0 **** 0.06
29464 H 4.0168742671274345 100.69698836674931 29.55698923390767 H 0.0 **** 0.06
29465 H 5.6700191402246105 101.3545829158094 29.58045672354673 H 0.0 **** 0.06
29466 C 112.15325084501137 129.60109848080072 142.31446780488977 C 0.0 **** -0.24
29467 H 111.6554095708961 130.09507516813449 143.149399558075 H 0.0 **** 0.06
29468 H 111.43965282289395 129.44961760706698 141.5049467875444 H 0.0 **** 0.06
29469 H 112.54232394371672 128.63786222684303 142.64232886977527 H 0.0 **** 0.06
29470 H 112.9750421361316 130.22511167632067 141.96291622735245 H 0.0 **** 0.06
29471 C 121.21195589048196 10.423204085681625 0.7282039413533425 C 0.0 **** -0.24
29472 H 120.31051282741024 10.231908834673938 1.310461128864631 H 0.0 **** 0.06
29473 H 121.01020526016654 11.201413321219718 -0.007799429189134344 H 0.0 **** 0.06
29474 H 121.51468695277717 9.509688314857378 0.21665558069528856 H 0.0 **** 0.06
29475 H 122.01149354214917 10.7496451317799 1.3931540734639043 H 0.0 **** 0.06
29476 C 138.88088640463886 114.33444901801504 122.40661233492328 C 0.0 **** -0.24
29477 H 138.22929547948254 115.07688839748299 121.94462101526479 H 0.0 **** 0.06
29478 H 139.91027557402714 114.51133854216458 122.09593420205023 H 0.0 **** 0.06
29479 H 138.5731442162143 113.33642877522588 122.0932574666053 H 0.0 **** 0.06
29480 H 138.80840916611825 114.4128025343315 123.49121394728382 H 0.0 **** 0.06
29481 C 130.9270165699092 65.4534000493046 84.20210946514794 C 0.0 **** -0.24
29482 H 131.58776072518646 64.73492312531812 83.71505602778643 H 0.0 **** 0.06
29483 H 130.67695902627082 66.24948639183083 83.5010027366352 H 0.0 **** 0.06
29484 H 131.4297618298549 65.87732825342226 85.07075261973722 H 0.0 **** 0.06
29485 H 130.014842621819 64.94866857779613 84.52013732582046 H 0.0 **** 0.06
29486 C 37.83277028307518 133.3256106815816 108.6351892663874 C 0.0 **** -0.24
29487 H 38.674842407556866 133.53313867388192 109.2953896619622 H 0.0 **** 0.06
29488 H 37.80108016774821 134.07107327068354 107.84054521741733 H 0.0 **** 0.06
29489 H 36.90507967735945 133.36507604082112 109.20721249810872 H 0.0 **** 0.06
29490 H 37.9495651041633 132.3334374861899 108.19923947974515 H 0.0 **** 0.06
29491 C 22.81935681780749 103.06502635056353 42.09776548934667 C 0.0 **** -0.24
29492 H 22.173529722864913 103.82497923180887 42.53631745635005 H 0.0 **** 0.06
29493 H 22.928308189657628 103.2524457048707 41.029460061074474 H 0.0 **** 0.06
29494 H 22.3762227480497 102.0802145190197 42.25106852234558 H 0.0 **** 0.06
29495 H 23.79780176468799 103.10025830147862 42.57551127604097 H 0.0 **** 0.06
29496 C 31.267002525037583 4.4506051865138545 83.63465120958466 C 0.0 **** -0.24
29497 H 31.637603044936952 5.160290873300454 82.89492127152522 H 0.0 **** 0.06
29498 H 32.10952513662437 3.931293820010495 84.09273559632783 H 0.0 **** 0.06
29499 H 30.614836071798607 3.7261126928119666 83.14724642307209 H 0.0 **** 0.06
29500 H 30.708246491805312 4.985076870907449 84.4026854501738 H 0.0 **** 0.06
29501 C 94.39981253071377 31.004286633854612 57.82770189115057 C 0.0 **** -0.24
29502 H 94.4987671462042 31.63847211515713 56.94769360633286 H 0.0 **** 0.06
29503 H 94.14025487410053 31.61763610168095 58.69032239361262 H 0.0 **** 0.06
29504 H 95.345513361834 30.494047044441565 58.01515714307736 H 0.0 **** 0.06
29505 H 93.61655769212315 30.26572514190098 57.65760877635175 H 0.0 **** 0.06
29506 C 111.37898901568599 62.74550828020429 123.70871944622132 C 0.0 **** -0.24
29507 H 112.38228577501434 62.68800207513311 123.28673776394868 H 0.0 **** 0.06
29508 H 110.67768038249164 63.05828474556762 122.93475691132895 H 0.0 **** 0.06
29509 H 111.36793499808692 63.46847543294028 124.52367843375737 H 0.0 **** 0.06
29510 H 111.08808168365738 61.76605229557178 124.08782995329153 H 0.0 **** 0.06
29511 C 0.6986286504422843 98.58791789223497 44.481272236390794 C 0.0 **** -0.24
29512 H 0.2698562406721656 99.58389842186722 44.368729273385156 H 0.0 **** 0.06
29513 H 0.07238343217020926 97.8634299817474 43.959782897552884 H 0.0 **** 0.06
29514 H 0.7485236870587784 98.33173477597535 45.5402036089406 H 0.0 **** 0.06
29515 H 1.7022786433314536 98.57441985189081 44.05711500064211 H 0.0 **** 0.06
29516 C 99.91678812120307 116.37556125664769 12.435904706476208 C 0.0 **** -0.24
29517 H 100.91149369579632 116.37323462935275 12.882891678187264 H 0.0 **** 0.06
29518 H 99.85505666622402 115.58986891885975 11.682843168762389 H 0.0 **** 0.06
29519 H 99.73144092543929 117.34281233650442 11.969166399102164 H 0.0 **** 0.06
29520 H 99.17067467776884 116.19642459284661 13.210641255561995 H 0.0 **** 0.06
29521 C 93.77366525591523 94.87255182933023 55.90217385817752 C 0.0 **** -0.24
29522 H 94.47433562466838 94.14873858718688 56.318121343505254 H 0.0 **** 0.06
29523 H 94.10313172827537 95.16405650902108 54.904615947361506 H 0.0 **** 0.06
29524 H 93.7353762742101 95.75185740093264 56.54445846915242 H 0.0 **** 0.06
29525 H 92.78230866219812 94.4231576225409 55.84138848100348 H 0.0 **** 0.06
29526 C 100.25734813097887 137.51032895338298 126.85661598302443 C 0.0 **** -0.24
29527 H 100.22650753169252 137.42664988547816 125.77049787445239 H 0.0 **** 0.06
29528 H 99.59636922927284 138.31561752791288 127.17823708172583 H 0.0 **** 0.06
29529 H 101.27679085298557 137.7264237447816 127.17517750808989 H 0.0 **** 0.06
29530 H 99.9285489556008 136.57091810674785 127.30171180028748 H 0.0 **** 0.06
29531 C 6.498877715298441 20.27669168124997 51.56775249545589 C 0.0 **** -0.24
29532 H 6.7137431567241315 20.490230090169092 50.520427755675 H 0.0 **** 0.06
29533 H 6.64870680346915 19.213414454386736 51.75981695843902 H 0.0 **** 0.06
29534 H 5.466652545749657 20.54475650161784 51.78844517392557 H 0.0 **** 0.06
29535 H 7.169652785039059 20.858893066844587 52.20053231617567 H 0.0 **** 0.06
29536 C 133.381026823307 40.52254068275704 31.999322522585146 C 0.0 **** -0.24
29537 H 133.0152390957666 41.47768553190221 32.37654336621023 H 0.0 **** 0.06
29538 H 133.63430352810036 39.874492441284815 32.83889224741887 H 0.0 **** 0.06
29539 H 134.2678828369471 40.689664692971746 31.387935673999095 H 0.0 **** 0.06
29540 H 132.60708311456216 40.04854228380367 31.39610736612076 H 0.0 **** 0.06
29541 C 84.74826250536955 13.625878865178656 119.32969720557568 C 0.0 **** -0.24
29542 H 84.68586480356583 13.781734437721184 120.40696620148017 H 0.0 **** 0.06
29543 H 83.81034430537476 13.92791727114463 118.86372387422628 H 0.0 **** 0.06
29544 H 84.9332393164676 12.571059802198256 119.12559615643298 H 0.0 **** 0.06
29545 H 85.56487912560088 14.223420637048662 118.92349644427563 H 0.0 **** 0.06
29546 C 27.28597091511231 56.24474295835624 103.16407304142939 C 0.0 **** -0.24
29547 H 27.439457050960613 57.249029346111485 102.7675382887353 H 0.0 **** 0.06
29548 H 26.684424046539725 56.3004570030635 104.07110842548428 H 0.0 **** 0.06
29549 H 28.251550412589573 55.79511211617549 103.39435593647983 H 0.0 **** 0.06
29550 H 26.769059603899144 55.63625870629117 102.42103631881182 H 0.0 **** 0.06
29551 C 66.65971004608707 110.0226881685007 37.96684805479422 C 0.0 **** -0.24
29552 H 66.56446692689079 109.70865749879765 39.005966601847184 H 0.0 **** 0.06
29553 H 65.88954916865902 110.76028836539378 37.73798317450029 H 0.0 **** 0.06
29554 H 66.54090224647244 109.15855225435872 37.31412937725035 H 0.0 **** 0.06
29555 H 67.64323954103973 110.46510402070659 37.81036860413319 H 0.0 **** 0.06
29556 C 112.29635235012856 24.405025313574527 133.43502006198096 C 0.0 **** -0.24
29557 H 112.23912968608707 25.491394248841544 133.5015782385949 H 0.0 **** 0.06
29558 H 113.17671372900801 24.12304141893148 132.85714824318325 H 0.0 **** 0.06
29559 H 111.40102334228001 24.02373054276262 132.9439669454911 H 0.0 **** 0.06
29560 H 112.36916652613556 23.98314590415856 134.43776718163053 H 0.0 **** 0.06
29561 C 115.92476353796171 63.76814163853088 5.955939562214098 C 0.0 **** -0.24
29562 H 115.44613820111705 63.01758573639192 5.32640278913243 H 0.0 **** 0.06
29563 H 116.05868458134618 63.366695833852745 6.961197431370607 H 0.0 **** 0.06
29564 H 115.29619959232583 64.65790141282203 6.0011926036793 H 0.0 **** 0.06
29565 H 116.89578684414765 64.02876168946702 5.535539990417334 H 0.0 **** 0.06
29566 C 40.58085844790105 67.4479745542823 61.7666621081666 C 0.0 **** -0.24
29567 H 41.08885755113164 68.34847428076066 62.112839924773354 H 0.0 **** 0.06
29568 H 41.23818207743915 66.58712495217691 61.89539273841173 H 0.0 **** 0.06
29569 H 40.32680726593742 67.55683265867134 60.71243737288603 H 0.0 **** 0.06
29570 H 39.670695248705385 67.29967738809859 62.34729260371142 H 0.0 **** 0.06
29571 C 87.55175364511314 117.66636386951147 36.71955696834303 C 0.0 **** -0.24
29572 H 86.80305779493932 118.27370590567581 36.211479171679386 H 0.0 **** 0.06
29573 H 88.50884150103553 118.1898475286557 36.713583877719415 H 0.0 **** 0.06
29574 H 87.65716893427799 116.71149607355953 36.20379341767726 H 0.0 **** 0.06
29575 H 87.23921098064847 117.49090915147609 37.74898721135662 H 0.0 **** 0.06
29576 C 14.290192340191396 57.82718085635756 38.63025732033863 C 0.0 **** -0.24
29577 H 13.356205276400146 58.218502642994125 39.035183706719806 H 0.0 **** 0.06
29578 H 14.378208446483768 56.76930656757722 38.877156161075746 H 0.0 **** 0.06
29579 H 15.12909453750163 58.37309784643688 39.06340359621623 H 0.0 **** 0.06
29580 H 14.296344249501459 57.95089118566207 37.54787533969247 H 0.0 **** 0.06
29581 C 80.94138069477683 135.6005787680264 6.901533301763294 C 0.0 **** -0.24
29582 H 81.10433572089127 134.66216131580816 6.3732699582696455 H 0.0 **** 0.06
29583 H 81.7819979412105 135.7921368452273 7.5699322329842005 H 0.0 **** 0.06
29584 H 80.0217914718501 135.5362389693328 7.482840389550859 H 0.0 **** 0.06
29585 H 80.8584172132361 136.4139860200557 6.18038240212104 H 0.0 **** 0.06
29586 C 108.19232285431872 123.39230269080932 28.17634492534434 C 0.0 **** -0.24
29587 H 108.40308898592082 124.45930417167594 28.09637976589412 H 0.0 **** 0.06
29588 H 108.48140780246712 123.03798172875887 29.166071387508524 H 0.0 **** 0.06
29589 H 108.75769159392087 122.85209901970936 27.416611351873897 H 0.0 **** 0.06
29590 H 107.12656419860531 123.22187626045402 28.025606096646904 H 0.0 **** 0.06
29591 C 12.974292690751916 126.70824275749368 56.96167877426231 C 0.0 **** -0.24
29592 H 13.545307128332176 126.43247220659202 57.84867090778583 H 0.0 **** 0.06
29593 H 12.278216137074864 125.90624621026058 56.715337792517886 H 0.0 **** 0.06
29594 H 13.655236753017661 126.86714153446235 56.126214108241 H 0.0 **** 0.06
29595 H 12.418456418775826 127.62478274343317 57.158097629089994 H 0.0 **** 0.06
29596 C 58.19029183446051 16.392684201564222 90.21272092112986 C 0.0 **** -0.24
29597 H 58.63360569706687 16.562433743181906 89.23101533806769 H 0.0 **** 0.06
29598 H 57.92513252539426 17.35066007080519 90.66173176539334 H 0.0 **** 0.06
29599 H 58.90919244611992 15.879053977812752 90.85149226105801 H 0.0 **** 0.06
29600 H 57.295455968408504 15.780327543210603 90.10641501992774 H 0.0 **** 0.06
29601 C 33.58141773501342 7.676772462295435 110.06326602576208 C 0.0 **** -0.24
29602 H 34.30953846414644 8.101362542513094 109.37161843121059 H 0.0 **** 0.06
29603 H 33.78958027329347 8.031710779074636 111.07293779106415 H 0.0 **** 0.06
29604 H 33.64890902397552 6.589297290748181 110.03827483515981 H 0.0 **** 0.06
29605 H 32.57888922845066 7.985672045911745 109.76835161614629 H 0.0 **** 0.06
29606 C 136.30708483248716 35.0277299996269 38.70303515500595 C 0.0 **** -0.24
29607 H 137.06542657573016 35.600570577771066 38.16893367965716 H 0.0 **** 0.06
29608 H 135.44971794931362 34.863550373024 38.050025208933874 H 0.0 **** 0.06
29609 H 135.9902878067606 35.581255857632755 39.586908256879184 H 0.0 **** 0.06
29610 H 136.72368239094493 34.066881231631726 39.00437382382208 H 0.0 **** 0.06
29611 C 21.799058895985127 78.06889695216833 99.75789442320017 C 0.0 **** -0.24
29612 H 22.72608271436792 78.6359401993122 99.66599911755355 H 0.0 **** 0.06
29613 H 21.921814114239794 77.09449418686523 99.28622477639826 H 0.0 **** 0.06
29614 H 20.991641431745677 78.61270855311744 99.26708295523365 H 0.0 **** 0.06
29615 H 21.558170400969573 77.93521326200415 100.81335090185249 H 0.0 **** 0.06
29616 C 97.44907634435374 52.76788132558025 34.66782108148004 C 0.0 **** -0.24
29617 H 97.26426626444449 51.75960167746106 35.03804300251764 H 0.0 **** 0.06
29618 H 98.01068067939283 52.71525593397861 33.73469082780204 H 0.0 **** 0.06
29619 H 98.02439181116267 53.32653291848912 35.40647217182004 H 0.0 **** 0.06
29620 H 96.49829154646669 53.269990016312434 34.491605344606654 H 0.0 **** 0.06
29621 C 112.50533013676986 27.085344399524352 126.7422678364321 C 0.0 **** -0.24
29622 H 112.73405972929189 26.472119163446173 127.61374615983955 H 0.0 **** 0.06
29623 H 112.6132248708416 28.13909817714277 127.00149678647524 H 0.0 **** 0.06
29624 H 111.48283547657567 26.892345744184617 126.42082422309875 H 0.0 **** 0.06
29625 H 113.19456978857832 26.838122377150455 125.93425056411292 H 0.0 **** 0.06
29626 C 108.20358357912028 53.817156306260756 95.28797909093129 C 0.0 **** -0.24
29627 H 109.18747946471234 54.261416908310935 95.14013706678719 H 0.0 **** 0.06
29628 H 107.60453373582527 54.4644664249459 95.92926517087068 H 0.0 **** 0.06
29629 H 108.3134890593106 52.840249225069954 95.75751735746053 H 0.0 **** 0.06
29630 H 107.70813965391045 53.702808673010225 94.32289416619523 H 0.0 **** 0.06
29631 C 132.80587122426726 71.48407441081856 11.674074059201388 C 0.0 **** -0.24
29632 H 132.20879080629098 71.50191540031896 12.585574224030921 H 0.0 **** 0.06
29633 H 133.82210583998102 71.80782951313975 11.899195674202872 H 0.0 **** 0.06
29634 H 132.3648103721014 72.1546881271624 10.936998459343926 H 0.0 **** 0.06
29635 H 132.82758341410525 70.46905296628844 11.274767115368348 H 0.0 **** 0.06
29636 C 136.1673150380765 4.675371583821622 74.2388889092958 C 0.0 **** -0.24
29637 H 135.98386005616604 5.726016802955456 74.01524015669423 H 0.0 **** 0.06
29638 H 135.73193724785827 4.428770402319174 75.20768556998829 H 0.0 **** 0.06
29639 H 137.24210322094845 4.492223604911828 74.26581723159998 H 0.0 **** 0.06
29640 H 135.71220290570156 4.055458404205837 73.46624442049091 H 0.0 **** 0.06
29641 C 51.99659835327276 45.04147336923239 67.00622560158911 C 0.0 **** -0.24
29642 H 51.70197153319526 45.05380944471557 65.95739019650054 H 0.0 **** 0.06
29643 H 51.885263129352836 46.04159987069556 67.42607721977902 H 0.0 **** 0.06
29644 H 53.037502127341384 44.72791654268974 67.08703621956802 H 0.0 **** 0.06
29645 H 51.36302656844754 44.344263228598834 67.55390039721362 H 0.0 **** 0.06
29646 C 21.364581305817097 24.24293054243745 5.380654396256219 C 0.0 **** -0.24
29647 H 21.287141551741826 23.550329519360034 4.543112299993204 H 0.0 **** 0.06
29648 H 20.500917025339618 24.90784945456511 5.3836115409497936 H 0.0 **** 0.06
29649 H 22.276627324286977 24.8316010920707 5.281594092722688 H 0.0 **** 0.06
29650 H 21.394234775705684 23.6812324164882 6.314676244551091 H 0.0 **** 0.06
29651 C 28.274530541980113 80.91851522402354 12.928384407431729 C 0.0 **** -0.24
29652 H 27.254538761163474 80.83350883066967 12.553364963961755 H 0.0 **** 0.06
29653 H 28.330059997815155 80.49349217710513 13.930074849774847 H 0.0 **** 0.06
29654 H 28.561435816358426 81.96963991636086 12.962635713587389 H 0.0 **** 0.06
29655 H 28.950507311971762 80.37809112902897 12.266029454579957 H 0.0 **** 0.06
29656 C 18.71587134381963 125.54246602775805 96.61738025442577 C 0.0 **** -0.24
29657 H 18.378989590527 126.28379380996022 95.89252322280703 H 0.0 **** 0.06
29658 H 18.35832991547045 124.55600868989245 96.32165748493594 H 0.0 **** 0.06
29659 H 18.32234637670723 125.79209586814471 97.60222028971793 H 0.0 **** 0.06
29660 H 19.805647122960863 125.53850202475576 96.65194853080845 H 0.0 **** 0.06
29661 C 62.886103209750075 103.26564340663913 131.28430792367513 C 0.0 **** -0.24
29662 H 62.75027775158311 102.3049977350976 130.78674459294302 H 0.0 **** 0.06
29663 H 63.28240159496758 103.10266438350399 132.28701643826216 H 0.0 **** 0.06
29664 H 61.92611670369614 103.77744384335526 131.35151740569694 H 0.0 **** 0.06
29665 H 63.5837824361146 103.87586282090163 130.71219798048375 H 0.0 **** 0.06
29666 C 35.09828615471122 34.50643111793704 36.04904818874941 C 0.0 **** -0.24
29667 H 34.3337819335394 33.7329626658059 36.12555156348676 H 0.0 **** 0.06
29668 H 35.7647014247363 34.27641433644351 35.218657438911066 H 0.0 **** 0.06
29669 H 35.67098888994656 34.54329817731758 36.97658760149137 H 0.0 **** 0.06
29670 H 34.62147989108661 35.47138527454257 35.877930848393845 H 0.0 **** 0.06
29671 C 6.506629406796492 106.09487220749232 58.903269020546105 C 0.0 **** -0.24
29672 H 6.679685191880424 105.4952288318289 59.79723906474706 H 0.0 **** 0.06
29673 H 5.784707090306796 105.58888556369281 58.26151936336112 H 0.0 **** 0.06
29674 H 7.445696680051157 106.22324619783 58.364454864123815 H 0.0 **** 0.06
29675 H 6.116016692433789 107.07066987510468 59.190701593499966 H 0.0 **** 0.06
29676 C 81.44096580438614 105.11564404193304 46.846302292947456 C 0.0 **** -0.24
29677 H 82.47497442438826 104.86461492078799 47.085125448440735 H 0.0 **** 0.06
29678 H 80.9782506492687 105.60277234198152 47.705069802199716 H 0.0 **** 0.06
29679 H 80.89277398587825 104.20513252760557 46.60510653809692 H 0.0 **** 0.06
29680 H 81.41983763798909 105.7901504145372 45.99095464242265 H 0.0 **** 0.06
29681 C 62.22162883281044 0.6321338020524934 20.01935251624389 C 0.0 **** -0.24
29682 H 62.618962705479134 1.6044240084621322 19.726174257383008 H 0.0 **** 0.06
29683 H 61.4741107693423 0.7661171918355478 20.80092405490582 H 0.0 **** 0.06
29684 H 63.0325516942479 0.00680235128794493 20.394014531157687 H 0.0 **** 0.06
29685 H 61.76244534082707 0.15177857653947058 19.154497997680437 H 0.0 **** 0.06
29686 C 11.602134926796623 33.00717464359397 56.962977392555544 C 0.0 **** -0.24
29687 H 11.898374394711823 31.9598731714143 56.89945791823364 H 0.0 **** 0.06
29688 H 12.128558757503527 33.484142538202995 57.789127761783604 H 0.0 **** 0.06
29689 H 10.526549347947082 33.07011958619609 57.132610996454574 H 0.0 **** 0.06
29690 H 11.852337689089381 33.5126752159704 56.030912699542725 H 0.0 **** 0.06
29691 C 101.68354749360749 86.68170325403912 43.495647670871335 C 0.0 **** -0.24
29692 H 100.78717292114229 86.42661784353729 42.930119627670535 H 0.0 **** 0.06
29693 H 101.4154437081096 87.3358429823849 44.325357545800216 H 0.0 **** 0.06
29694 H 102.3913392076997 87.19308591778177 42.84274906791305 H 0.0 **** 0.06
29695 H 102.14034622834298 85.77035064483567 43.88232746391907 H 0.0 **** 0.06
29696 C 125.98334365852648 121.13883262592805 15.09834498151946 C 0.0 **** -0.24
29697 H 126.89709311080557 121.26552556282303 15.678697220530836 H 0.0 **** 0.06
29698 H 126.18605724489902 121.35910870754111 14.049760892546942 H 0.0 **** 0.06
29699 H 125.21780148506319 121.81883062041936 15.47261336542769 H 0.0 **** 0.06
29700 H 125.63412177902707 120.11017138887036 15.192801716830786 H 0.0 **** 0.06
29701 C 9.175750155453613 93.63252656102205 102.84705523968177 C 0.0 **** -0.24
29702 H 8.10412002244567 93.55557398170203 102.6607541524254 H 0.0 **** 0.06
29703 H 9.605950508904243 92.63230211735882 102.90769072820649 H 0.0 **** 0.06
29704 H 9.344405924661487 94.15936063097007 103.78568346399743 H 0.0 **** 0.06
29705 H 9.64659772072065 94.18225891266172 102.03211364347209 H 0.0 **** 0.06
29706 C 1.6002159460120993 27.994804822010508 78.85470283327341 C 0.0 **** -0.24
29707 H 2.6372693685951845 28.10155594718657 79.1723634674345 H 0.0 **** 0.06
29708 H 1.5668442439356625 27.490761284081316 77.88772174216716 H 0.0 **** 0.06
29709 H 1.143562780229189 28.980569828571447 78.76615829896937 H 0.0 **** 0.06
29710 H 1.052675619507852 27.4058626372979 79.59044231459863 H 0.0 **** 0.06
29711 C 36.7137032080976 12.410880389684088 69.81001118057145 C 0.0 **** -0.24
29712 H 37.13323517691269 11.739122716041258 69.06234322515706 H 0.0 **** 0.06
29713 H 35.80435443167393 11.972903113196203 70.22322137500265 H 0.0 **** 0.06
29714 H 36.477017618181065 13.368608592816877 69.34733906871776 H 0.0 **** 0.06
29715 H 37.43915836730815 12.563605738343782 70.60923560960367 H 0.0 **** 0.06
29716 C 78.50176526471022 71.89848495319347 41.138124579449254 C 0.0 **** -0.24
29717 H 77.74044733942705 72.49636281347298 41.64151913705723 H 0.0 **** 0.06
29718 H 79.29521691832636 71.6530327493403 41.84464819837768 H 0.0 **** 0.06
29719 H 78.9175244244098 72.4659221553147 40.30612205898717 H 0.0 **** 0.06
29720 H 78.05167856003318 70.97944153564623 40.76312719281492 H 0.0 **** 0.06
29721 C 69.47782217547007 48.7240853848306 64.65769677412163 C 0.0 **** -0.24
29722 H 69.934398613385 49.29628538626966 65.46536441335559 H 0.0 **** 0.06
29723 H 68.99346299114639 47.838226587981865 65.07018717399802 H 0.0 **** 0.06
29724 H 70.24697073132057 48.42047245004565 63.94774003708136 H 0.0 **** 0.06
29725 H 68.73610937114356 49.340493042000816 64.14976113629183 H 0.0 **** 0.06
29726 C 96.00830906475349 129.45524991474423 60.40628377196347 C 0.0 **** -0.24
29727 H 96.62400222423904 130.03449606278946 59.71888746214009 H 0.0 **** 0.06
29728 H 95.03683097287188 129.26328833566126 59.95023225360731 H 0.0 **** 0.06
29729 H 95.8712006021764 130.0162334789995 61.33087861217301 H 0.0 **** 0.06
29730 H 96.50114307283766 128.50807337508854 60.626033968971285 H 0.0 **** 0.06
29731 C 18.349347361326934 52.10822736354916 11.308850438781036 C 0.0 **** -0.24
29732 H 18.15249650974954 51.065572476594525 11.55663540464613 H 0.0 **** 0.06
29733 H 17.991023215431866 52.3164429122436 10.30056178913921 H 0.0 **** 0.06
29734 H 19.421570903927204 52.2971488806664 11.360688926860973 H 0.0 **** 0.06
29735 H 17.833127825327523 52.753216135602315 12.01952388479478 H 0.0 **** 0.06
29736 C 120.60685237394979 108.45884644361989 0.9750953235532371 C 0.0 **** -0.24
29737 H 121.04221846763248 107.49382165270815 0.7115872444357798 H 0.0 **** 0.06
29738 H 120.12584206419423 108.38500092036797 1.950448499884935 H 0.0 **** 0.06
29739 H 119.86777721863588 108.73978518470993 0.22528587901976138 H 0.0 **** 0.06
29740 H 121.3926233283379 109.21274069720634 1.012288301426274 H 0.0 **** 0.06
29741 C 115.71294764999669 70.77418462843957 126.64737967361775 C 0.0 **** -0.24
29742 H 115.17310599097686 70.17850628229041 127.38391359378946 H 0.0 **** 0.06
29743 H 115.5026031085697 70.39247601972932 125.64807259949977 H 0.0 **** 0.06
29744 H 116.78279245911546 70.70982178077418 126.84340865753704 H 0.0 **** 0.06
29745 H 115.39199385403549 71.81346814434843 126.71592395495162 H 0.0 **** 0.06
29746 C 83.95785237582736 58.48884642739989 92.35092068475174 C 0.0 **** -0.24
29747 H 83.00451340147941 58.40666532201348 92.87233504514725 H 0.0 **** 0.06
29748 H 84.73248661072935 58.788440705956106 93.05620568332367 H 0.0 **** 0.06
29749 H 83.87731724420281 59.23427375753238 91.5602873644269 H 0.0 **** 0.06
29750 H 84.21630167950521 57.52394422912408 91.91450160865537 H 0.0 **** 0.06
29751 C 61.94715339280788 56.23639922137022 38.16012763998467 C 0.0 **** -0.24
29752 H 62.479335830411 56.9968527429732 37.587657343580275 H 0.0 **** 0.06
29753 H 61.10211265729089 56.695162198103446 38.67523797890728 H 0.0 **** 0.06
29754 H 62.622707165429745 55.79476447405693 38.89218208633334 H 0.0 **** 0.06
29755 H 61.58429825667389 55.46122798330322 37.4850279380747 H 0.0 **** 0.06
29756 C 117.18225870473135 85.16236771998888 6.609828112145863 C 0.0 **** -0.24
29757 H 117.29469399609066 85.12802355952512 5.525835624414697 H 0.0 **** 0.06
29758 H 117.26117214780187 84.15332367200153 7.014558489784378 H 0.0 **** 0.06
29759 H 116.20745803619043 85.57964347533185 6.86066961784482 H 0.0 **** 0.06
29760 H 117.9671010580022 85.78814229293847 7.036260543093562 H 0.0 **** 0.06
29761 C 80.68653140261347 30.097409191688143 144.95333844157457 C 0.0 **** -0.24
29762 H 80.00289940870803 29.87415769321433 145.77166167045254 H 0.0 **** 0.06
29763 H 81.68982159182016 30.249914882697055 145.35005958932283 H 0.0 **** 0.06
29764 H 80.356834686242 31.00006646184295 144.4395916218998 H 0.0 **** 0.06
29765 H 80.69601028989288 29.2633861519804 144.25156310755517 H 0.0 **** 0.06
29766 C 71.9662073760149 52.628392522095126 75.29322150226038 C 0.0 **** -0.24
29767 H 72.03589734829765 53.53526009601133 75.89401132610756 H 0.0 **** 0.06
29768 H 72.8722831881184 52.037813811849546 75.42147602774763 H 0.0 **** 0.06
29769 H 71.85232220941785 52.89784345220866 74.24225844456562 H 0.0 **** 0.06
29770 H 71.10195312348576 52.04566969825241 75.61333340770672 H 0.0 **** 0.06
29771 C 144.88527853525034 118.62607560920728 48.85232270032924 C 0.0 **** -0.24
29772 H 144.78714172653207 119.3553815740971 49.656197601439715 H 0.0 **** 0.06
29773 H 145.43774834478785 117.75889357940949 49.21497040963044 H 0.0 **** 0.06
29774 H 145.42105034116784 119.07595320442945 48.017064911497584 H 0.0 **** 0.06
29775 H 143.89433423490578 118.31328286082797 48.52187599354551 H 0.0 **** 0.06
29776 C 107.37906929364007 97.99419278428967 52.45882362384121 C 0.0 **** -0.24
29777 H 107.7048516222271 98.15016260849474 53.48733186052864 H 0.0 **** 0.06
29778 H 107.69840632123478 98.83623788444875 51.844645462275764 H 0.0 **** 0.06
29779 H 106.29272842658699 97.91382940610778 52.43076809015787 H 0.0 **** 0.06
29780 H 107.82101488894446 97.07468760906548 52.07455908503046 H 0.0 **** 0.06
29781 C 131.06299006258786 55.99150770663604 126.82269951542878 C 0.0 **** -0.24
29782 H 131.3013435122504 55.29617261153342 126.01760719070045 H 0.0 **** 0.06
29783 H 131.10372572902696 55.468084697314964 127.77794914591821 H 0.0 **** 0.06
29784 H 130.06200433163735 56.394801213345175 126.67065085762763 H 0.0 **** 0.06
29785 H 131.78683523025882 56.80662050810972 126.8231487705938 H 0.0 **** 0.06
29786 C 44.22296063649188 131.05223185281977 63.152606594631095 C 0.0 **** -0.24
29787 H 43.99409185589258 131.18564068150326 64.2097324358997 H 0.0 **** 0.06
29788 H 43.78418347429448 130.118259890353 62.800942139620304 H 0.0 **** 0.06
29789 H 45.30449685675387 131.0203533429083 63.01555141138073 H 0.0 **** 0.06
29790 H 43.80898130903597 131.88460771706335 62.58320651696107 H 0.0 **** 0.06
29791 C 102.51325280423184 60.30693432251934 77.37654563128973 C 0.0 **** -0.24
29792 H 101.66497471157648 59.73065384863406 77.00599060439339 H 0.0 **** 0.06
29793 H 103.43874871965639 59.87737910120282 76.99495231845776 H 0.0 **** 0.06
29794 H 102.5225612086884 60.28069661821027 78.46632030763396 H 0.0 **** 0.06
29795 H 102.425667409441 61.33964325016338 77.03960802932829 H 0.0 **** 0.06
29796 C 24.85888302669379 129.0264007645188 36.54108406492855 C 0.0 **** -0.24
29797 H 25.053213817945696 129.87325181252533 37.198927301564424 H 0.0 **** 0.06
29798 H 23.795128107997982 128.78955284735198 36.55746778889909 H 0.0 **** 0.06
29799 H 25.42966338958474 128.16304331776655 36.883171184183176 H 0.0 **** 0.06
29800 H 25.15905451240399 129.28101471586024 35.524487918798776 H 0.0 **** 0.06
29801 C 96.28527199082693 126.75835742150036 11.711260047217081 C 0.0 **** -0.24
29802 H 96.27117530487044 127.76233565333652 12.134791469587412 H 0.0 **** 0.06
29803 H 97.17779095559436 126.23326503067835 12.051021374707773 H 0.0 **** 0.06
29804 H 96.29398911994812 126.82336473418303 10.623238467942258 H 0.0 **** 0.06
29805 H 95.39813258289459 126.21446426780375 12.035988876630768 H 0.0 **** 0.06
29806 C 33.22659801602816 1.0992513689513999 3.4966150769627973 C 0.0 **** -0.24
29807 H 33.237095010076274 0.3165811941742902 2.737985317856669 H 0.0 **** 0.06
29808 H 33.058661375856516 0.6519531454481751 4.476739312129382 H 0.0 **** 0.06
29809 H 32.427342152652 1.8067469036942043 3.2780722053590807 H 0.0 **** 0.06
29810 H 34.18382845370391 1.6198318703407324 3.4940281532908557 H 0.0 **** 0.06
29811 C 7.965670181488633 50.8544189574761 57.665710138656976 C 0.0 **** -0.24
29812 H 8.484818271926656 51.20190348761369 56.772904658393514 H 0.0 **** 0.06
29813 H 6.934032350347483 51.20587460284787 57.644872269843376 H 0.0 **** 0.06
29814 H 8.465255366779232 51.24602315887583 58.552069382427845 H 0.0 **** 0.06
29815 H 7.97885530511218 49.76517640220689 57.69251818801999 H 0.0 **** 0.06
29816 C 135.89430663504558 143.2169837709154 86.96931012479614 C 0.0 **** -0.24
29817 H 134.85963235221013 143.19685150506217 86.62680067381832 H 0.0 **** 0.06
29818 H 135.95634652332419 142.7667342610483 87.96037387511228 H 0.0 **** 0.06
29819 H 136.24036368867397 144.24994211587645 87.01722161817929 H 0.0 **** 0.06
29820 H 136.51851734563914 142.65563921443294 86.27481453153773 H 0.0 **** 0.06
29821 C 139.53595628946647 53.64622752892319 24.125154073543698 C 0.0 **** -0.24
29822 H 138.5869172411529 53.206741487838755 24.434558120541055 H 0.0 **** 0.06
29823 H 140.34969492767578 52.96344129295758 24.370947301214954 H 0.0 **** 0.06
29824 H 139.68477842639135 54.59159313977197 24.646303478023356 H 0.0 **** 0.06
29825 H 139.52085041682523 53.82194933977851 23.05025199188961 H 0.0 **** 0.06
29826 C 37.889704070722466 20.668462332164566 73.39579719529277 C 0.0 **** -0.24
29827 H 38.24586670629166 19.65283275671561 73.22624013896852 H 0.0 **** 0.06
29828 H 38.7191230418091 21.367164141712493 73.28635384024611 H 0.0 **** 0.06
29829 H 37.47827623673574 20.746741590798706 74.401944488373 H 0.0 **** 0.06
29830 H 37.11488355013455 20.90803151847365 72.6667246927166 H 0.0 **** 0.06
29831 C 3.3473335034253466 115.29808934839843 122.87284610620279 C 0.0 **** -0.24
29832 H 4.188178996435994 115.96261431947312 122.67312797087575 H 0.0 **** 0.06
29833 H 2.851588869643791 115.04774933377354 121.93342439270575 H 0.0 **** 0.06
29834 H 2.64012544688606 115.79654800236949 123.53463275184876 H 0.0 **** 0.06
29835 H 3.7092766522505656 114.38613132081383 123.3472832405532 H 0.0 **** 0.06
29836 C 39.33380943047905 19.363426497303664 114.83750328820219 C 0.0 **** -0.24
29837 H 39.544429928042575 20.376904856895663 115.17937392012857 H 0.0 **** 0.06
29838 H 38.50809852147046 19.3843627735898 114.12599989416032 H 0.0 **** 0.06
29839 H 39.06337622939583 18.741419220919568 115.69052304729945 H 0.0 **** 0.06
29840 H 40.22038951046204 18.95236441092615 114.35438877572403 H 0.0 **** 0.06
29841 C 87.46212779280938 57.46309263468238 22.338153627440192 C 0.0 **** -0.24
29842 H 86.86958674934365 57.94261232662649 23.117061746234867 H 0.0 **** 0.06
29843 H 87.73836940299441 56.45842786443008 22.657880321953485 H 0.0 **** 0.06
29844 H 88.36385161773828 58.04770707498288 22.15553379899228 H 0.0 **** 0.06
29845 H 86.87670459115185 57.40410419418832 21.419954854241723 H 0.0 **** 0.06
29846 C 43.25553440334063 95.11622723863013 69.4365735304513 C 0.0 **** -0.24
29847 H 44.0112291667667 94.88300329376625 70.18618868599295 H 0.0 **** 0.06
29848 H 42.49438041578729 94.33515807289609 69.43422406585337 H 0.0 **** 0.06
29849 H 43.724075514562784 95.16951442337239 68.45395936880912 H 0.0 **** 0.06
29850 H 42.794040337778526 96.07432662656441 69.67174496839993 H 0.0 **** 0.06
29851 C 102.86321109362292 69.7321566165687 24.432806951553083 C 0.0 **** -0.24
29852 H 102.96953277784888 68.8997713324159 25.12764454775924 H 0.0 **** 0.06
29853 H 103.7790273721814 70.32393399972217 24.432876601080082 H 0.0 **** 0.06
29854 H 102.02612115278144 70.35838508445968 24.740815422242576 H 0.0 **** 0.06
29855 H 102.67957529317532 69.34661162342621 23.429893768954976 H 0.0 **** 0.06
29856 C 145.04878401639755 115.28097999271216 62.26094750161309 C 0.0 **** -0.24
29857 H 145.8914308134269 115.4452157369659 62.93191236931142 H 0.0 **** 0.06
29858 H 145.35220363004953 114.61460394591256 61.45296765295552 H 0.0 **** 0.06
29859 H 144.72610743653686 116.23484259699023 61.84378824096689 H 0.0 **** 0.06
29860 H 144.22595214508783 114.82962668078574 62.81437839176081 H 0.0 **** 0.06
29861 C 98.97575996169483 1.1784694105413962 7.47725153184868 C 0.0 **** -0.24
29862 H 98.01432482016915 0.7970404049430329 7.823279483519542 H 0.0 **** 0.06
29863 H 99.28217666530762 2.0140727626183264 8.106469089929305 H 0.0 **** 0.06
29864 H 98.88231946282347 1.515088918911573 6.444384595025326 H 0.0 **** 0.06
29865 H 99.72234201504187 0.3865043838993074 7.535924589695071 H 0.0 **** 0.06
29866 C 46.44587146081008 30.55629595265458 66.54856105072548 C 0.0 **** -0.24
29867 H 45.66800382589557 29.99397242554378 66.03089306769019 H 0.0 **** 0.06
29868 H 46.849714148933714 31.316319027107888 65.87971584822876 H 0.0 **** 0.06
29869 H 47.24301647172916 29.878721535555904 66.85285465126461 H 0.0 **** 0.06
29870 H 46.01998557253205 31.036567388627034 67.429299626323 H 0.0 **** 0.06
29871 C 29.312915469794433 61.250451691997 123.93499237615046 C 0.0 **** -0.24
29872 H 28.42999906522573 60.865284327406926 124.44375220195977 H 0.0 **** 0.06
29873 H 29.0885943617495 62.230735017965515 123.51168676450547 H 0.0 **** 0.06
29874 H 29.599460959578153 60.566413035991786 123.13625606722744 H 0.0 **** 0.06
29875 H 30.132427828746756 61.340585887089446 124.64789924990313 H 0.0 **** 0.06
29876 C 3.248525208484107 81.89290842771024 96.71417574155203 C 0.0 **** -0.24
29877 H 4.067233436917192 81.60826067932098 97.37421463624521 H 0.0 **** 0.06
29878 H 2.297926996718072 81.69781248155363 97.2103627014811 H 0.0 **** 0.06
29879 H 3.3044204353084545 81.31189026723823 95.79352134040423 H 0.0 **** 0.06
29880 H 3.324155705215226 82.95500025045914 96.47829030079708 H 0.0 **** 0.06
29881 C 127.61978028374045 54.988064377376716 20.802794979184767 C 0.0 **** -0.24
29882 H 127.69158215244562 54.0258102834229 21.309286268108764 H 0.0 **** 0.06
29883 H 127.00352444326634 55.665203647913216 21.394011548409907 H 0.0 **** 0.06
29884 H 127.16694762863608 54.84875326808641 19.820204027451837 H 0.0 **** 0.06
29885 H 128.6170273194467 55.41239454119736 20.6854443585367 H 0.0 **** 0.06
29886 C 133.883470105706 48.21620030905814 106.24259948669943 C 0.0 **** -0.24
29887 H 133.12868508399782 48.966808097914566 106.00579268307511 H 0.0 **** 0.06
29888 H 133.41667365120637 47.23179011993108 106.27800500876968 H 0.0 **** 0.06
29889 H 134.3301321571469 48.44252562158084 107.21007181256574 H 0.0 **** 0.06
29890 H 134.65712524618488 48.224521151826195 105.4739419281607 H 0.0 **** 0.06
29891 C 133.8099727812994 139.37915822277736 16.56714647485647 C 0.0 **** -0.24
29892 H 134.4199872255589 138.98399599319296 17.38021605438489 H 0.0 **** 0.06
29893 H 133.88561674505533 138.71937480061015 15.702886260718095 H 0.0 **** 0.06
29894 H 134.16535445380038 140.37465597311078 16.297722884725225 H 0.0 **** 0.06
29895 H 132.7703776577614 139.4395482678697 16.889183613171184 H 0.0 **** 0.06
29896 C 81.93735924540567 63.04959961449343 3.0856668668184746 C 0.0 **** -0.24
29897 H 82.16302490389518 62.48414439210758 3.9897444602361745 H 0.0 **** 0.06
29898 H 82.64743104673278 62.78071110043837 2.3023917017035913 H 0.0 **** 0.06
29899 H 82.01344058648027 64.11585861512572 3.295080815168209 H 0.0 **** 0.06
29900 H 80.92519696437057 62.81578872797721 2.754315212313724 H 0.0 **** 0.06
29901 C 105.1572545574772 12.647671002992439 36.99107309789187 C 0.0 **** -0.24
29902 H 104.3712710556521 12.19585886329375 37.59512405933722 H 0.0 **** 0.06
29903 H 106.13068196212147 12.337586453033737 37.37116461280115 H 0.0 **** 0.06
29904 H 105.07568794677152 13.733551398149956 37.04070734443658 H 0.0 **** 0.06
29905 H 105.05154520611644 12.321968735906722 35.95555896195248 H 0.0 **** 0.06
29906 C 15.663709286495276 87.11428434084905 85.34496788458426 C 0.0 **** -0.24
29907 H 15.526744950365753 87.9602986572382 84.6712368870181 H 0.0 **** 0.06
29908 H 16.72582587073694 86.98129923612441 85.5491545446597 H 0.0 **** 0.06
29909 H 15.267518520178413 86.21170985736337 84.87897528436321 H 0.0 **** 0.06
29910 H 15.13329147352178 87.3031318166803 86.27866296390067 H 0.0 **** 0.06
29911 C 129.6109508495788 18.302356660597667 143.46692682418046 C 0.0 **** -0.24
29912 H 129.93740101979932 17.263729084741698 143.425588047754 H 0.0 **** 0.06
29913 H 130.16902493475106 18.887677434747843 142.73699138275285 H 0.0 **** 0.06
29914 H 129.78956725746147 18.699549096440336 144.4654473213658 H 0.0 **** 0.06
29915 H 128.54570340432107 18.357239610505104 143.2394675976371 H 0.0 **** 0.06
29916 C 51.96835211025237 86.80542282599093 46.70831685951394 C 0.0 **** -0.24
29917 H 52.73913663705149 87.2556032169916 47.33290205926066 H 0.0 **** 0.06
29918 H 51.12859379827472 87.4950493211896 46.614363484448745 H 0.0 **** 0.06
29919 H 51.62713143035418 85.87675593575383 47.16502149247472 H 0.0 **** 0.06
29920 H 52.37906419117736 86.59569896380123 45.72012789379647 H 0.0 **** 0.06
29921 C 92.12160324981662 119.1584281814266 17.878182218796155 C 0.0 **** -0.24
29922 H 91.60791920088369 118.38032725468862 18.443314564038616 H 0.0 **** 0.06
29923 H 91.46730802982006 120.02530286419336 17.776240925422314 H 0.0 **** 0.06
29924 H 92.37938071649762 118.77911800729184 16.889391309220656 H 0.0 **** 0.06
29925 H 93.03073852895949 119.44926987630085 18.404659243490727 H 0.0 **** 0.06
29926 C 92.16212916723649 74.49937883806086 33.09749349914162 C 0.0 **** -0.24
29927 H 91.57445551054174 74.88938190644458 32.26602599718211 H 0.0 **** 0.06
29928 H 91.73239053357152 74.84255672807654 34.03800744979473 H 0.0 **** 0.06
29929 H 93.18863860681054 74.85564205193714 33.015008586691515 H 0.0 **** 0.06
29930 H 92.15257463077054 73.4099936672502 33.06874391944798 H 0.0 **** 0.06
29931 C 10.43587101882548 4.3842046835433734 120.01992468472884 C 0.0 **** -0.24
29932 H 10.600269657806507 3.3282004696313834 120.23587633417941 H 0.0 **** 0.06
29933 H 9.65712739640503 4.771886539778166 120.67616779087336 H 0.0 **** 0.06
29934 H 10.126138010288287 4.498613562823607 118.98094971619139 H 0.0 **** 0.06
29935 H 11.36057768080218 4.936237085302025 120.18644702281767 H 0.0 **** 0.06
29936 C 39.859826812988175 114.2546284319227 108.94033268749772 C 0.0 **** -0.24
29937 H 39.98360796924684 114.26752361166717 110.02346834887769 H 0.0 **** 0.06
29938 H 39.72629813419849 113.22718879695009 108.60353195680628 H 0.0 **** 0.06
29939 H 40.74553907498296 114.68111783513513 108.46846987373274 H 0.0 **** 0.06
29940 H 38.984150543216685 114.84401734693222 108.66888349552428 H 0.0 **** 0.06
29941 C 44.184366438541346 84.00371468466183 138.02878390475277 C 0.0 **** -0.24
29942 H 43.92996728145978 84.91317425290755 138.5741647902709 H 0.0 **** 0.06
29943 H 43.84804537886113 84.09466064190926 136.99588609711415 H 0.0 **** 0.06
29944 H 43.693820618021135 83.15056463782524 138.4973110526182 H 0.0 **** 0.06
29945 H 45.26457814584616 83.85921726068214 138.0483046364792 H 0.0 **** 0.06
29946 C 40.030160776821816 114.71569697017812 74.24023889178433 C 0.0 **** -0.24
29947 H 40.55875605948259 113.94970392348931 73.67205968185823 H 0.0 **** 0.06
29948 H 40.548980319638616 115.66897245591998 74.13605609325617 H 0.0 **** 0.06
29949 H 39.99982257092968 114.43085068671301 75.29184531869736 H 0.0 **** 0.06
29950 H 39.01352719714572 114.81204812065549 73.86041725895976 H 0.0 **** 0.06
29951 C 0.6811030790197918 42.42186631545107 133.5070578984672 C 0.0 **** -0.24
29952 H 0.2537025494213161 42.742933413368235 134.45683713108807 H 0.0 **** 0.06
29953 H -0.01827450371621353 41.75483793504259 133.00106370920773 H 0.0 **** 0.06
29954 H 1.617576750410322 41.895728085622665 133.6902749568014 H 0.0 **** 0.06
29955 H 0.8696104663263391 43.29289965161283 132.88085209133627 H 0.0 **** 0.06
29956 C 117.28823721694621 18.061396985837632 85.225443926819 C 0.0 **** -0.24
29957 H 117.59078883971702 18.181302577729127 86.26541798082005 H 0.0 **** 0.06
29958 H 118.06530121151357 17.524936184492674 84.67995854648836 H 0.0 **** 0.06
29959 H 117.13940899785834 19.042704810891053 84.77479770832194 H 0.0 **** 0.06
29960 H 116.35765384334454 17.496102237366415 85.1807862970786 H 0.0 **** 0.06
29961 C 74.64276004923505 5.494873207700522 123.5585108884047 C 0.0 **** -0.24
29962 H 73.66039721570267 5.636315234422597 124.00734520368982 H 0.0 **** 0.06
29963 H 74.70543420239748 4.494564189030228 123.12881825259099 H 0.0 **** 0.06
29964 H 75.41106912462159 5.610823179909772 124.32282146455468 H 0.0 **** 0.06
29965 H 74.79534788900418 6.237191757600357 122.77548535273652 H 0.0 **** 0.06
29966 C 102.69631131410051 64.75730931277472 17.058809716855947 C 0.0 **** -0.24
29967 H 102.61824257539689 64.69283615085564 18.143927389585762 H 0.0 **** 0.06
29968 H 102.02003331497028 65.53006872338558 16.690732360747354 H 0.0 **** 0.06
29969 H 102.4259416111571 63.79756801489634 16.61700114078225 H 0.0 **** 0.06
29970 H 103.72074615664337 65.00916297424877 16.782250611233145 H 0.0 **** 0.06
29971 C 18.579383275987226 91.40642139321879 140.25097698646124 C 0.0 **** -0.24
29972 H 17.840017290149177 91.21697864992332 141.02913524895348 H 0.0 **** 0.06
29973 H 18.22938998444772 92.21165771356075 139.60510930787922 H 0.0 **** 0.06
29974 H 18.72173796956568 90.50152888212402 139.65974724699043 H 0.0 **** 0.06
29975 H 19.525488209434684 91.69286217116426 140.71026995671082 H 0.0 **** 0.06
29976 C 41.45379396148877 144.6893378096571 44.3555112228739 C 0.0 **** -0.24
29977 H 41.46016308388644 144.635714654375 43.2671561068028 H 0.0 **** 0.06
29978 H 40.423230089219004 144.7073960549499 44.71195751600516 H 0.0 **** 0.06
29979 H 41.96554046752212 145.59596691429476 44.67746160858839 H 0.0 **** 0.06
29980 H 41.96598366853982 143.81826731792802 44.764503656601136 H 0.0 **** 0.06
29981 C 61.66541669409145 65.03540034213452 57.0209459398033 C 0.0 **** -0.24
29982 H 61.27155011230049 64.96023273924138 56.00782018036162 H 0.0 **** 0.06
29983 H 60.83843093472572 65.06382220952958 57.731149918523016 H 0.0 **** 0.06
29984 H 62.25636545651744 65.9463191829995 57.114910346685846 H 0.0 **** 0.06
29985 H 62.29432695352749 64.16999883633494 57.23177537433823 H 0.0 **** 0.06
29986 C 136.54868053653516 119.23721276806396 105.29056727466251 C 0.0 **** -0.24
29987 H 135.85249158664612 119.99209114882734 104.92690202383584 H 0.0 **** 0.06
29988 H 136.86305358560656 119.49101071133487 106.30351206031851 H 0.0 **** 0.06
29989 H 137.4204368350439 119.20160772340921 104.63722116990809 H 0.0 **** 0.06
29990 H 136.0586129267904 118.26301589682146 105.29548057206186 H 0.0 **** 0.06
29991 C 59.447775107672996 117.3925961701783 14.966382490558594 C 0.0 **** -0.24
29992 H 59.246106083536034 118.23249847090209 15.631704709554327 H 0.0 **** 0.06
29993 H 58.95498932679439 116.49927571206199 15.349323221629469 H 0.0 **** 0.06
29994 H 60.52341107981604 117.2211534126785 14.915015448484823 H 0.0 **** 0.06
29995 H 59.0679439380372 117.61979164599718 13.970339625067503 H 0.0 **** 0.06
29996 C 131.65939650462607 95.7223614558232 123.19931437162697 C 0.0 **** -0.24
29997 H 131.06327205827802 94.83030433340576 123.00776380654625 H 0.0 **** 0.06
29998 H 131.17729290772283 96.58620951323195 122.74071586543332 H 0.0 **** 0.06
29999 H 132.6540777647295 95.59268860032455 122.77281110300865 H 0.0 **** 0.06
30000 H 131.74266597524775 95.87959585500073 124.27438432568292 H 0.0 **** 0.06
30001 C 85.66835190312898 47.798329240366485 114.06119540606714 C 0.0 **** -0.24
30002 H 84.92792436572958 47.61681436448785 114.84125205564395 H 0.0 **** 0.06
30003 H 85.55491272092084 47.05380683013314 113.27333639561219 H 0.0 **** 0.06
30004 H 86.66872946314558 47.727323990438464 114.48721870702961 H 0.0 **** 0.06
30005 H 85.5192090004993 48.79440902377516 113.64474811655172 H 0.0 **** 0.06
30006 C 55.2307485181492 81.92612250848842 1.8095670489831015 C 0.0 **** -0.24
30007 H 54.94997173670106 81.17916815868884 2.5518180023181323 H 0.0 **** 0.06
30008 H 54.35790185629577 82.52304260103219 1.5469209692923158 H 0.0 **** 0.06
30009 H 55.61204722607283 81.42640703661141 0.9187631074601974 H 0.0 **** 0.06
30010 H 56.00431450700728 82.57431014681063 2.2221871813180805 H 0.0 **** 0.06
30011 C 121.90897898209927 67.89730981754286 20.729745893123265 C 0.0 **** -0.24
30012 H 122.18483990540413 68.70875347375187 21.40351874655162 H 0.0 **** 0.06
30013 H 121.2557864285031 68.28334133381446 19.946207688069883 H 0.0 **** 0.06
30014 H 121.38634390051554 67.12268167705321 21.290008035032507 H 0.0 **** 0.06
30015 H 122.80775164392209 67.47760052761981 20.280103118864005 H 0.0 **** 0.06
30016 C 123.66632602378303 44.29439764022163 56.76671169791658 C 0.0 **** -0.24
30017 H 122.63855083498918 44.608166288782456 56.9532280688221 H 0.0 **** 0.06
30018 H 123.85635079226594 43.352426309094724 57.28251937056656 H 0.0 **** 0.06
30019 H 124.3513997791661 45.05652394925744 57.13642277488229 H 0.0 **** 0.06
30020 H 123.81567003277179 44.15905693140317 55.69561779658035 H 0.0 **** 0.06
30021 C 56.747439137832245 58.436915622816116 52.66994666656733 C 0.0 **** -0.24
30022 H 56.34103776145464 58.830854406701974 51.738232082005766 H 0.0 **** 0.06
30023 H 57.51145779932443 59.11576224288336 53.049013486719275 H 0.0 **** 0.06
30024 H 57.19058457293694 57.45799154271964 52.48721280706221 H 0.0 **** 0.06
30025 H 55.94731106280889 58.342988753915506 53.4031851274615 H 0.0 **** 0.06
30026 C 23.040689560103374 20.67720915312151 98.59806060628424 C 0.0 **** -0.24
30027 H 23.047079826876626 20.059782138795697 99.4968553470285 H 0.0 **** 0.06
30028 H 23.599391170602075 20.174977660419813 97.809053076025 H 0.0 **** 0.06
30029 H 23.504000808159475 21.639727372843026 98.81644396321929 H 0.0 **** 0.06
30030 H 22.01173906128136 20.83371321205675 98.27325100894772 H 0.0 **** 0.06
30031 C 87.63171597702987 55.908531627403704 67.59763590085238 C 0.0 **** -0.24
30032 H 87.51557130150402 55.33001069593371 68.51371930932646 H 0.0 **** 0.06
30033 H 86.65843282287395 56.288586985368624 67.2831111254593 H 0.0 **** 0.06
30034 H 88.04314472925418 55.27081535812954 66.81551364741468 H 0.0 **** 0.06
30035 H 88.3073733790878 56.744032039893796 67.77842858708748 H 0.0 **** 0.06
30036 C 10.891015003529162 108.07777164746885 80.63249669168306 C 0.0 **** -0.24
30037 H 11.866320190375973 108.50392634297593 80.86535677530432 H 0.0 **** 0.06
30038 H 10.960830086902092 107.48780659926082 79.71824835442607 H 0.0 **** 0.06
30039 H 10.167954197588074 108.88211168222772 80.49286099721644 H 0.0 **** 0.06
30040 H 10.568624646125102 107.43899299769906 81.45487142254943 H 0.0 **** 0.06
30041 C 87.4199238420708 81.09488699831724 114.81953510090791 C 0.0 **** -0.24
30042 H 86.33241473860728 81.15697324367994 114.77048226307785 H 0.0 **** 0.06
30043 H 87.84264539358081 82.09901799418915 114.77838471744683 H 0.0 **** 0.06
30044 H 87.78767621009473 80.51031417075745 113.97685743029685 H 0.0 **** 0.06
30045 H 87.71393329689553 80.61407947990432 115.75203519558796 H 0.0 **** 0.06
30046 C 135.75533754645454 144.17433427633878 44.99901732636417 C 0.0 **** -0.24
30047 H 136.52880442817906 144.46873616547566 44.28966451775399 H 0.0 **** 0.06
30048 H 135.49953204719864 143.12562221350348 44.843703106167226 H 0.0 **** 0.06
30049 H 134.86886228105823 144.7911578188406 44.84601311616838 H 0.0 **** 0.06
30050 H 136.12303895651317 144.31315652084953 46.01496264437145 H 0.0 **** 0.06
30051 C 53.776237182628165 15.534982384484344 32.90316250620942 C 0.0 **** -0.24
30052 H 53.21491813300776 15.101142414963206 32.07439125212679 H 0.0 **** 0.06
30053 H 53.91881392448903 14.781545974398043 33.67859489973907 H 0.0 **** 0.06
30054 H 53.221401252879446 16.378953754771715 33.314374571569715 H 0.0 **** 0.06
30055 H 54.74707670503045 15.877092174248155 32.545022312788966 H 0.0 **** 0.06
30056 C 93.16083361166599 21.101667015599844 96.340468876177 C 0.0 **** -0.24
30057 H 93.78616222061811 21.99378862172682 96.37992877177788 H 0.0 **** 0.06
30058 H 93.13074826071937 20.724138061233248 95.31782734274191 H 0.0 **** 0.06
30059 H 92.15115456643593 21.35159250945196 96.66520313282933 H 0.0 **** 0.06
30060 H 93.5762504730161 20.33786636278296 96.99819321862401 H 0.0 **** 0.06
30061 C 91.12315279816409 102.69072986434796 50.99106368570061 C 0.0 **** -0.24
30062 H 92.07147909736437 103.15189696972104 50.71585828680239 H 0.0 **** 0.06
30063 H 90.33108224672529 103.43963450538031 50.9541172111838 H 0.0 **** 0.06
30064 H 91.19458258863779 102.28835183075017 52.001743464958665 H 0.0 **** 0.06
30065 H 90.89489600861225 101.8851610996915 50.29361212988444 H 0.0 **** 0.06
30066 C 130.62282962148296 139.68841745031935 30.305709696073393 C 0.0 **** -0.24
30067 H 129.9761856323007 138.81378408239178 30.21958173139592 H 0.0 **** 0.06
30068 H 131.17601142163454 139.82336297746895 29.37615953334017 H 0.0 **** 0.06
30069 H 131.32307097761193 139.54191349083862 31.12790098539402 H 0.0 **** 0.06
30070 H 130.01473271683665 140.57125334279598 30.49915160557552 H 0.0 **** 0.06
30071 C 16.364799834256047 28.072790405258445 102.34933604918466 C 0.0 **** -0.24
30072 H 15.959131533367042 28.266315913962416 103.34164494369357 H 0.0 **** 0.06
30073 H 15.54617522234875 27.91932746091537 101.6454782439006 H 0.0 **** 0.06
30074 H 16.989474356844568 27.179304440876905 102.37982421449966 H 0.0 **** 0.06
30075 H 16.964618116253547 28.92466165030072 102.02965450814906 H 0.0 **** 0.06
30076 C 6.503367085214251 130.6250055854863 51.27948269076845 C 0.0 **** -0.24
30077 H 6.613368201421423 131.6577644312983 51.608666182776574 H 0.0 **** 0.06
30078 H 6.251457807871645 129.99624281401066 52.13333571049063 H 0.0 **** 0.06
30079 H 7.439686459157741 130.28200025083882 50.83896336091314 H 0.0 **** 0.06
30080 H 5.707694102681728 130.56385287748586 50.535789994336355 H 0.0 **** 0.06
30081 C 130.06466965899156 52.185582154319036 102.16912769243194 C 0.0 **** -0.24
30082 H 129.02616381506795 52.50832495438931 102.2241139433352 H 0.0 **** 0.06
30083 H 130.13773896588103 51.30193183169064 101.53453970479481 H 0.0 **** 0.06
30084 H 130.4243913466903 51.945866826006636 103.16994474987675 H 0.0 **** 0.06
30085 H 130.67269927329446 52.98696599845033 101.74766134484216 H 0.0 **** 0.06
30086 C 38.298010052948825 78.22367247146049 91.00639916441503 C 0.0 **** -0.24
30087 H 39.17946177495449 78.84944367747478 91.14273006176313 H 0.0 **** 0.06
30088 H 38.32244279092794 77.40181507386119 91.72215147246231 H 0.0 **** 0.06
30089 H 38.290544261345644 77.82298343044826 89.99264600927734 H 0.0 **** 0.06
30090 H 37.40087093927028 78.82068010950434 91.16862482526409 H 0.0 **** 0.06
30091 C 139.03476054852052 28.405250638470847 58.21084773601933 C 0.0 **** -0.24
30092 H 139.32918897351894 28.411232078981982 59.26079300379001 H 0.0 **** 0.06
30093 H 139.92202818517293 28.294029438323307 57.586038193084164 H 0.0 **** 0.06
30094 H 138.53506546534246 29.343199120575363 57.96876642174021 H 0.0 **** 0.06
30095 H 138.35586669465206 27.572895922697285 58.02889828539742 H 0.0 **** 0.06
30096 C 17.415608665224966 3.8591255535570106 50.83785074946806 C 0.0 **** -0.24
30097 H 17.354850127599605 2.8517686142077174 50.426174558698364 H 0.0 **** 0.06
30098 H 18.390009861250633 4.288558376792448 50.60481071163045 H 0.0 **** 0.06
30099 H 17.28436831517587 3.819152011442995 51.91855187523217 H 0.0 **** 0.06
30100 H 16.631866826975823 4.477454778621105 50.398862539104215 H 0.0 **** 0.06
30101 C 85.03622405095487 83.20092495423393 73.26540348895054 C 0.0 **** -0.24
30102 H 84.60255926346522 82.22542284764216 73.48293817583905 H 0.0 **** 0.06
30103 H 85.98513040446358 83.30273004254462 73.7930069371752 H 0.0 **** 0.06
30104 H 84.35244280011976 83.98398301519785 73.59351502993168 H 0.0 **** 0.06
30105 H 85.20473455082843 83.29245283050926 72.19261099444736 H 0.0 **** 0.06
30106 C 42.56392365384144 67.41136362070847 8.914543751933323 C 0.0 **** -0.24
30107 H 42.94247582075292 66.90095778292314 8.029870952279857 H 0.0 **** 0.06
30108 H 41.60769327830894 66.97507031670474 9.20515614922197 H 0.0 **** 0.06
30109 H 42.427525507329605 68.47018247014631 8.692620064066105 H 0.0 **** 0.06
30110 H 43.27785978262533 67.30047823839507 9.731203759986485 H 0.0 **** 0.06
30111 C 139.07900581203512 32.17561306883138 59.11943803661987 C 0.0 **** -0.24
30112 H 139.0417373229735 32.87457179832637 58.28386897852184 H 0.0 **** 0.06
30113 H 138.2240646237108 32.34469255754965 59.773417813134785 H 0.0 **** 0.06
30114 H 140.00155944199844 32.32918318421673 59.680385423157844 H 0.0 **** 0.06
30115 H 139.05089725269727 31.154026503286246 58.740132482839016 H 0.0 **** 0.06
30116 C 78.48964272780054 11.564384498262314 82.7882703574716 C 0.0 **** -0.24
30117 H 79.14225847933433 12.42501054109664 82.63794591226856 H 0.0 **** 0.06
30118 H 77.8009883256594 11.480135350340618 81.94745937942655 H 0.0 **** 0.06
30119 H 77.92303068545036 11.69458125931925 83.71071576420191 H 0.0 **** 0.06
30120 H 79.09264573831472 10.658899894022738 82.8561297561272 H 0.0 **** 0.06
30121 C 19.68501557649575 69.43225826982373 5.326566604670177 C 0.0 **** -0.24
30122 H 18.8937322185583 69.7339104976394 4.6407543494918855 H 0.0 **** 0.06
30123 H 20.01877744225795 70.29856943546982 5.898858431258844 H 0.0 **** 0.06
30124 H 20.522874287721578 69.02776014746858 4.759296020438654 H 0.0 **** 0.06
30125 H 19.306114854537604 68.67076791544609 6.00716671932426 H 0.0 **** 0.06
30126 C 90.17724539403963 64.33514162120302 28.578513875938768 C 0.0 **** -0.24
30127 H 91.05591341381722 64.8821279981653 28.920847522810277 H 0.0 **** 0.06
30128 H 90.41171249131258 63.272651296752784 28.51639809357033 H 0.0 **** 0.06
30129 H 89.88356906143721 64.70076577332946 27.594395945441192 H 0.0 **** 0.06
30130 H 89.35859128725599 64.48697302285055 29.28167641554677 H 0.0 **** 0.06
30131 C 50.330960194529894 18.45111639441251 106.54022254462775 C 0.0 **** -0.24
30132 H 50.44462226398315 17.579177216560602 107.18405783711701 H 0.0 **** 0.06
30133 H 50.99703161857491 18.357832892674956 105.68174540650408 H 0.0 **** 0.06
30134 H 50.5822049721088 19.35182378726332 107.10031106476363 H 0.0 **** 0.06
30135 H 49.299063193862196 18.514164525617623 106.19483521341381 H 0.0 **** 0.06
30136 C 93.73420901332817 20.899945173658296 106.81002784859703 C 0.0 **** -0.24
30137 H 94.513018665569 20.30344935984408 106.33424513230608 H 0.0 **** 0.06
30138 H 93.01435950362072 20.238799140111496 107.29188724219057 H 0.0 **** 0.06
30139 H 93.2275374361946 21.50153116605719 106.05560151749773 H 0.0 **** 0.06
30140 H 94.18294510752142 21.555258502464767 107.55653387932017 H 0.0 **** 0.06
30141 C 137.6880313152187 142.18873809110002 16.06309106238873 C 0.0 **** -0.24
30142 H 137.4299473604409 141.5142074650133 16.87906040783892 H 0.0 **** 0.06
30143 H 137.5573219358954 143.22065162720062 16.38990972232969 H 0.0 **** 0.06
30144 H 137.0379098135422 141.99175819887986 15.210413004891272 H 0.0 **** 0.06
30145 H 138.72678457892252 142.02763202390494 15.773673689174139 H 0.0 **** 0.06
30146 C 26.165243207802625 8.660178753851994 83.69301768750358 C 0.0 **** -0.24
30147 H 25.54262277449145 8.578681097249103 84.58367407524517 H 0.0 **** 0.06
30148 H 27.186220536527983 8.907951735528968 83.98538182842671 H 0.0 **** 0.06
30149 H 25.771591461148013 9.443580571967118 83.04523084051519 H 0.0 **** 0.06
30150 H 26.160595618125896 7.709735316415788 83.15897125788278 H 0.0 **** 0.06
30151 C 107.30509025550164 63.20635384550431 141.63057438163116 C 0.0 **** -0.24
30152 H 106.40278095985208 63.800150555025624 141.7788050347981 H 0.0 **** 0.06
30153 H 108.17647266025087 63.788380206679946 141.93003873714696 H 0.0 **** 0.06
30154 H 107.3925440521809 62.93680853624507 140.57797993792508 H 0.0 **** 0.06
30155 H 107.24624539063349 62.300607705068515 142.23364492685192 H 0.0 **** 0.06
30156 C 101.77636111974687 23.275173313466325 18.664004996643612 C 0.0 **** -0.24
30157 H 101.82347891429504 24.246818053038908 18.171798402999357 H 0.0 **** 0.06
30158 H 100.8233589202535 23.176868216526202 19.183716269006837 H 0.0 **** 0.06
30159 H 102.59232625536873 23.193184089428485 19.382063881568286 H 0.0 **** 0.06
30160 H 101.86795727661945 22.48529401712534 17.918596564788402 H 0.0 **** 0.06
30161 C 82.16045049233156 11.769072037290272 63.06505927047495 C 0.0 **** -0.24
30162 H 82.15988320789978 10.945788069348048 63.77904530648236 H 0.0 **** 0.06
30163 H 82.11292303197116 11.37031773829581 62.05164274525296 H 0.0 **** 0.06
30164 H 83.07342065014937 12.352355193793784 63.18366843357988 H 0.0 **** 0.06
30165 H 81.29591706488128 12.407264964300438 63.2451275764343 H 0.0 **** 0.06
30166 C 143.5202407077782 69.96090817614538 92.22214942107183 C 0.0 **** -0.24
30167 H 143.66901153769342 69.01763930991592 92.7470341242224 H 0.0 **** 0.06
30168 H 143.38370660349872 69.76674803888721 91.15809059002827 H 0.0 **** 0.06
30169 H 144.3920215611409 70.5987967358979 92.36693275969084 H 0.0 **** 0.06
30170 H 142.6349051804979 70.46014194719663 92.61695136914194 H 0.0 **** 0.06
30171 C 53.52247079849384 70.39267608052538 45.22194699288207 C 0.0 **** -0.24
30172 H 53.25989892763535 70.4393176261761 46.2787541981462 H 0.0 **** 0.06
30173 H 54.15663999805706 69.52361635300848 45.04419842530791 H 0.0 **** 0.06
30174 H 54.06045341251904 71.2983599170049 44.94194450856054 H 0.0 **** 0.06
30175 H 52.61401545839162 70.30953283786073 44.62548325801805 H 0.0 **** 0.06
30176 C 52.699275989503505 107.47166662845594 139.2876801625624 C 0.0 **** -0.24
30177 H 51.86754288540527 107.04225762293568 139.84542814232546 H 0.0 **** 0.06
30178 H 53.62656687360641 107.31006606183759 139.83662254152014 H 0.0 **** 0.06
30179 H 52.53467813579289 108.54121582611383 139.15683308082325 H 0.0 **** 0.06
30180 H 52.767064450735845 106.99218036604599 138.31024391250386 H 0.0 **** 0.06
30181 C 46.61748035613164 7.085103817184461 109.83353181519445 C 0.0 **** -0.24
30182 H 46.33128570303484 6.1276905976682485 109.39778709867753 H 0.0 **** 0.06
30183 H 47.63620962671047 7.019812597170329 110.21649480795205 H 0.0 **** 0.06
30184 H 45.93661112637818 7.3308662661629285 110.6493448265883 H 0.0 **** 0.06
30185 H 46.56491963570571 7.862169747797935 109.07007267021922 H 0.0 **** 0.06
30186 C 35.645760682200915 37.90596905236262 25.542613635250184 C 0.0 **** -0.24
30187 H 34.715931288450605 37.341456949097676 25.604259677628292 H 0.0 **** 0.06
30188 H 36.169997499778106 37.64100557218333 24.62332472641419 H 0.0 **** 0.06
30189 H 36.27371589269754 37.66585692110982 26.4005881770861 H 0.0 **** 0.06
30190 H 35.424187221948955 38.97285254976171 25.540031408615725 H 0.0 **** 0.06
30191 C 106.41840900565904 1.402512169753635 88.00832856015515 C 0.0 **** -0.24
30192 H 106.72471697979307 1.6780991984709033 89.01777005874541 H 0.0 **** 0.06
30193 H 106.03443699022921 2.282715495946775 87.49300974934167 H 0.0 **** 0.06
30194 H 105.63780849177272 0.6424505449989795 88.06086554216336 H 0.0 **** 0.06
30195 H 107.27581479843496 1.0062868827968998 87.46367293051017 H 0.0 **** 0.06
30196 C 97.32687003051724 109.47710945614645 91.75548718676261 C 0.0 **** -0.24
30197 H 96.54602469482305 109.2708555710042 92.4871057812718 H 0.0 **** 0.06
30198 H 97.7942811028966 108.54096471017024 91.4488068402211 H 0.0 **** 0.06
30199 H 98.07827329670748 110.12991836803914 92.20048109952397 H 0.0 **** 0.06
30200 H 96.88890102764177 109.96669917537216 90.88555502603364 H 0.0 **** 0.06
30201 C 88.22550021108725 88.28002508216862 76.98872655799022 C 0.0 **** -0.24
30202 H 88.40301180520387 89.30708493177359 76.66976637942287 H 0.0 **** 0.06
30203 H 87.22021621975273 87.97835033009156 76.69389549486942 H 0.0 **** 0.06
30204 H 88.32180547808997 88.21473440786052 78.07278714071276 H 0.0 **** 0.06
30205 H 88.9561030658515 87.62198376890913 76.51865211653342 H 0.0 **** 0.06
30206 C 67.40891403439412 2.127074713442994 128.90542033025508 C 0.0 **** -0.24
30207 H 66.47009361813032 1.7311723792458338 129.29197878647352 H 0.0 **** 0.06
30208 H 68.23417399838947 1.4956438151683074 129.23771838885358 H 0.0 **** 0.06
30209 H 67.55573729874446 3.141757859054792 129.2757673944185 H 0.0 **** 0.06
30210 H 67.3766283247034 2.1387921467466526 127.81579780542512 H 0.0 **** 0.06
30211 C 56.24515897712921 123.28863585784464 124.62284419722195 C 0.0 **** -0.24
30212 H 55.301193406713836 123.4379049587418 125.1452937692754 H 0.0 **** 0.06
30213 H 57.05278662763196 123.19613094892014 125.35099970552558 H 0.0 **** 0.06
30214 H 56.43914289146987 124.14096410213074 123.97179297403443 H 0.0 **** 0.06
30215 H 56.18970996695373 122.37929502896714 124.02434477041629 H 0.0 **** 0.06
30216 C 28.707490023395138 1.7479578820081372 37.4336558198855 C 0.0 **** -0.24
30217 H 28.42568830968804 1.1853920841365664 38.322932128237966 H 0.0 **** 0.06
30218 H 29.07889093885393 1.0614870997345065 36.67233581391278 H 0.0 **** 0.06
30219 H 29.48859670064357 2.4638546098531435 37.68946263948908 H 0.0 **** 0.06
30220 H 27.837136533751192 2.280457991426289 37.0505757751076 H 0.0 **** 0.06
30221 C 23.293415708209373 28.555324434205602 143.0004137214246 C 0.0 **** -0.24
30222 H 23.854035779953072 28.366945056119278 142.08436771969076 H 0.0 **** 0.06
30223 H 23.982375719444022 28.84667053140248 143.7934442794726 H 0.0 **** 0.06
30224 H 22.76261908176236 27.649455352377572 143.29359123226362 H 0.0 **** 0.06
30225 H 22.576064046266005 29.35717410799458 142.82783458922967 H 0.0 **** 0.06
30226 C 67.30170231035873 64.97492580847077 123.13154489542981 C 0.0 **** -0.24
30227 H 68.3492786111594 64.80119063637787 122.88430835355149 H 0.0 **** 0.06
30228 H 66.92316733839996 65.8086170959746 122.54158563123008 H 0.0 **** 0.06
30229 H 67.2133578684284 65.20931629281952 124.1920793029476 H 0.0 **** 0.06
30230 H 66.72360340227337 64.07854982538456 122.90857042286024 H 0.0 **** 0.06
30231 C 110.49780106973647 73.939688865612 70.94734645275818 C 0.0 **** -0.24
30232 H 110.43252256473254 74.84675437810331 71.54782688338894 H 0.0 **** 0.06
30233 H 109.91348950318654 73.14898584217248 71.41835455760864 H 0.0 **** 0.06
30234 H 111.53984662154907 73.62683099063754 70.87286849536882 H 0.0 **** 0.06
30235 H 110.10528944996015 74.1364062109808 69.94894028528435 H 0.0 **** 0.06
30236 C 9.813411315372264 127.44550526991274 127.50420749876673 C 0.0 **** -0.24
30237 H 9.992448579301879 127.12338839014022 128.52986594904212 H 0.0 **** 0.06
30238 H 8.739110103962048 127.52192931948106 127.33012630268587 H 0.0 **** 0.06
30239 H 10.242104422015643 126.71851383175314 126.81480591602974 H 0.0 **** 0.06
30240 H 10.277721986076699 128.41805073532387 127.34109768235055 H 0.0 **** 0.06
30241 C 92.41883516870885 104.63363839331682 31.653017362840927 C 0.0 **** -0.24
30242 H 92.50395690888146 105.20959835249771 32.57526753126527 H 0.0 **** 0.06
30243 H 91.44355199824841 104.81504227645571 31.200879902597293 H 0.0 **** 0.06
30244 H 92.52353268145495 103.57159782246025 31.878100051000814 H 0.0 **** 0.06
30245 H 93.20368772809692 104.93774630407584 30.961469335290673 H 0.0 **** 0.06
30246 C 21.964826586402275 12.63343788271527 34.36896177898768 C 0.0 **** -0.24
30247 H 22.098959184197255 11.604363820546467 34.03515355444995 H 0.0 **** 0.06
30248 H 22.064550424247386 12.67901703671211 35.453728860552445 H 0.0 **** 0.06
30249 H 20.97459814489573 12.98286161134476 34.07890742166498 H 0.0 **** 0.06
30250 H 22.723183274623047 13.266235444385103 33.907394560972335 H 0.0 **** 0.06
30251 C 3.9170886152972493 123.46628517081436 10.559707355150579 C 0.0 **** -0.24
30252 H 3.152335944920946 123.8675652144497 11.22499345342709 H 0.0 **** 0.06
30253 H 3.685695624903861 123.74357021422607 9.532032738801888 H 0.0 **** 0.06
30254 H 3.9419736176092997 122.38010612396 10.6469352598034 H 0.0 **** 0.06
30255 H 4.889476535573859 123.87500414998826 10.836451771399027 H 0.0 **** 0.06
30256 C 80.21381131104192 88.24498692059358 1.5462461813640687 C 0.0 **** -0.24
30257 H 79.85641291215163 88.26599112065678 0.517651012880151 H 0.0 **** 0.06
30258 H 80.64119263065895 89.21462265668004 1.8034497635013054 H 0.0 **** 0.06
30259 H 80.97699170507032 87.4725795573674 1.6498778456818002 H 0.0 **** 0.06
30260 H 79.38184997071234 88.02467900426932 2.2158084908061255 H 0.0 **** 0.06
30261 C 8.712990797621671 2.049670886531562 54.10731879134627 C 0.0 **** -0.24
30262 H 7.979851674572444 1.9584831507617544 53.30482904462821 H 0.0 **** 0.06
30263 H 9.718191835652135 2.0096359042232415 53.686118093019246 H 0.0 **** 0.06
30264 H 8.581329264468991 1.2285115368284671 54.81303015430204 H 0.0 **** 0.06
30265 H 8.570963645011034 2.9982490346989508 54.62308772108854 H 0.0 **** 0.06
30266 C 67.02085385666264 49.09884875640239 47.812940290108074 C 0.0 **** -0.24
30267 H 68.02743191597062 48.749739268925 47.58549355745221 H 0.0 **** 0.06
30268 H 66.8587886024124 50.07045778364116 47.34505067026571 H 0.0 **** 0.06
30269 H 66.9041041998783 49.19187776331444 48.89314631805932 H 0.0 **** 0.06
30270 H 66.29261379415138 48.38422154607771 47.42979117279779 H 0.0 **** 0.06
30271 C 41.77483224462253 93.8186761018921 37.392900307383286 C 0.0 **** -0.24
30272 H 41.91946291612804 94.89798761607452 37.44479962427158 H 0.0 **** 0.06
30273 H 40.88232378642208 93.54386059355102 37.95393500358972 H 0.0 **** 0.06
30274 H 42.642021171788144 93.31517136695021 37.8190918163495 H 0.0 **** 0.06
30275 H 41.65670529953685 93.51838539282952 36.35110883567154 H 0.0 **** 0.06
30276 C 37.62509900224012 142.31739472204873 133.91035704698785 C 0.0 **** -0.24
30277 H 36.62089894574936 142.4302549443125 133.50145886388833 H 0.0 **** 0.06
30278 H 37.58149389967244 141.71741573822555 134.81966598093476 H 0.0 **** 0.06
30279 H 38.03541789744122 143.30073790453304 134.1422396239146 H 0.0 **** 0.06
30280 H 38.26256335947724 141.82196905286952 133.17746242109214 H 0.0 **** 0.06
30281 C 125.0623105910372 93.22613803217538 137.96349521483114 C 0.0 **** -0.24
30282 H 125.62808062306712 93.98936020452251 138.49786314531198 H 0.0 **** 0.06
30283 H 124.63368109470815 92.52324227802146 138.6791538561738 H 0.0 **** 0.06
30284 H 125.72535130817366 92.69174847117228 137.28261803727014 H 0.0 **** 0.06
30285 H 124.2616606146758 93.69934041180838 137.39454438716433 H 0.0 **** 0.06
30286 C 59.18166412318111 88.98246703731469 123.83570465217758 C 0.0 **** -0.24
30287 H 58.45196115046693 89.18100188059441 123.05056556016623 H 0.0 **** 0.06
30288 H 59.791996291351836 89.87131693083086 123.99757631901946 H 0.0 **** 0.06
30289 H 59.82052119820409 88.15189026921561 123.53642260631221 H 0.0 **** 0.06
30290 H 58.66090772585909 88.7261297561498 124.75866071688529 H 0.0 **** 0.06
30291 C 43.752762779916566 71.32886140882862 78.80135814496137 C 0.0 **** -0.24
30292 H 43.80360012771706 70.86670977030856 77.81493360576184 H 0.0 **** 0.06
30293 H 43.6192115096095 72.40517791545972 78.69197469570935 H 0.0 **** 0.06
30294 H 44.678147168705706 71.1301438779368 79.34304072935262 H 0.0 **** 0.06
30295 H 42.912212389493334 70.91123292620617 79.35416129201877 H 0.0 **** 0.06
30296 C 19.24077777973133 121.59853471094094 131.28839884234503 C 0.0 **** -0.24
30297 H 18.830960221025165 120.74162613093448 131.82374002553826 H 0.0 **** 0.06
30298 H 20.083658520131863 122.00617036166504 131.84659337315884 H 0.0 **** 0.06
30299 H 18.47023123500753 122.36185808136092 131.18194070461817 H 0.0 **** 0.06
30300 H 19.578035453682077 121.28205934025736 130.30158402684708 H 0.0 **** 0.06
30301 C 105.85025437603493 41.95379830633058 29.349735279428444 C 0.0 **** -0.24
30302 H 106.46335983155889 41.72517346279746 30.22201294080034 H 0.0 **** 0.06
30303 H 105.31753885284841 42.890228077725425 29.51666451791553 H 0.0 **** 0.06
30304 H 105.13207068209762 41.150098109926546 29.190026061374596 H 0.0 **** 0.06
30305 H 106.4899052600906 42.05071854844334 28.47258301063286 H 0.0 **** 0.06
30306 C 49.15192289772759 97.9752030642006 120.49117778967242 C 0.0 **** -0.24
30307 H 48.50102955160983 97.61271213351525 121.28681343076674 H 0.0 **** 0.06
30308 H 50.13373309456651 97.51093717008943 120.58660752900575 H 0.0 **** 0.06
30309 H 49.252043902330655 99.05747727745693 120.56930703839545 H 0.0 **** 0.06
30310 H 48.72110370413267 97.71879920401298 119.52402437911236 H 0.0 **** 0.06
30311 C 56.108913176080165 104.16759467040185 131.31899431565657 C 0.0 **** -0.24
30312 H 55.75076563663663 103.7858677732263 130.36314454088878 H 0.0 **** 0.06
30313 H 55.82163169650755 105.2137540737682 131.4232379701761 H 0.0 **** 0.06
30314 H 57.19441858305288 104.0819213173686 131.36089842688568 H 0.0 **** 0.06
30315 H 55.66760199194951 103.58699079730593 132.12896559250748 H 0.0 **** 0.06
30316 C 52.13277366648096 6.139567817878952 20.989250322146916 C 0.0 **** -0.24
30317 H 53.03866826493815 5.759936963367174 20.5161749503323 H 0.0 **** 0.06
30318 H 52.257649120944535 7.199386559479702 21.214255456629587 H 0.0 **** 0.06
30319 H 51.94945971833684 5.591370356091769 21.913967297663362 H 0.0 **** 0.06
30320 H 51.28776365935667 6.008585436319102 20.31401809703374 H 0.0 **** 0.06
30321 C 143.35241658801644 76.05538603638351 123.12181644035202 C 0.0 **** -0.24
30322 H 144.07490248920845 75.83005530009913 122.33765698002416 H 0.0 **** 0.06
30323 H 142.4545161419485 76.4830988455042 122.67548758165533 H 0.0 **** 0.06
30324 H 143.78639916935916 76.76924787259455 123.82141722851657 H 0.0 **** 0.06
30325 H 143.09330805543644 75.13790803795521 123.65091928475184 H 0.0 **** 0.06
30326 C 64.31720803144339 23.86996486237542 21.052619582621887 C 0.0 **** -0.24
30327 H 63.27584836287815 23.933007677917942 21.36933486041422 H 0.0 **** 0.06
30328 H 64.76603159263325 22.963953522617835 21.46096110710335 H 0.0 **** 0.06
30329 H 64.86039213029817 24.742036054772925 21.41701603846184 H 0.0 **** 0.06
30330 H 64.3646662524803 23.840500816655783 19.96429910588683 H 0.0 **** 0.06
30331 C 83.96305461172297 59.02880689817616 2.952072976522203 C 0.0 **** -0.24
30332 H 84.85507514380966 59.65210648985416 3.022257950806061 H 0.0 **** 0.06
30333 H 83.08106826146405 59.66458808882868 2.874328172229575 H 0.0 **** 0.06
30334 H 83.88550228508902 58.40447660913955 3.842730747884602 H 0.0 **** 0.06
30335 H 84.0333850264811 58.39319094072023 2.0683897979181616 H 0.0 **** 0.06
30336 C 78.54822020919678 38.12099775141544 60.44530559106673 C 0.0 **** -0.24
30337 H 78.65308174472628 39.199345172334596 60.32633589169319 H 0.0 **** 0.06
30338 H 78.63190428911568 37.86162839851488 61.500534663854694 H 0.0 **** 0.06
30339 H 79.33395188824784 37.61604703907072 59.88332213380963 H 0.0 **** 0.06
30340 H 77.57416840353704 37.807161272898334 60.06964663186673 H 0.0 **** 0.06
30341 C 115.45881825134155 67.83404819282705 19.502668695827616 C 0.0 **** -0.24
30342 H 114.67390817820406 67.19203906857605 19.10307221103114 H 0.0 **** 0.06
30343 H 115.21661105858651 68.87678145470841 19.29578480229577 H 0.0 **** 0.06
30344 H 116.40898322999085 67.58186417779281 19.033622260363593 H 0.0 **** 0.06
30345 H 115.53450842569059 67.68641105194045 20.580560260036265 H 0.0 **** 0.06
30346 C 130.694020369605 30.94256230224432 128.71714309349318 C 0.0 **** -0.24
30347 H 130.02144352170473 31.51129991246419 128.07487304056775 H 0.0 **** 0.06
30348 H 131.30660565594215 30.27990451490996 128.10541942939318 H 0.0 **** 0.06
30349 H 130.10843719292606 30.35062025151558 129.4213020909126 H 0.0 **** 0.06
30350 H 131.33864299103422 31.62811872490129 129.26697848019856 H 0.0 **** 0.06
30351 C 134.98132421958547 75.86292716466963 13.34227451108827 C 0.0 **** -0.24
30352 H 134.45855906120136 75.22770243021357 14.057807914935694 H 0.0 **** 0.06
30353 H 136.00644168873572 76.02019840530528 13.677000977954854 H 0.0 **** 0.06
30354 H 134.47027543153524 76.82201227847564 13.267503448753281 H 0.0 **** 0.06
30355 H 134.98880138307885 75.37783341994775 12.365438234188986 H 0.0 **** 0.06
30356 C 120.33368845464913 134.93212903018772 84.10292950073122 C 0.0 **** -0.24
30357 H 121.3414944136161 135.15725910752988 83.75201561572968 H 0.0 **** 0.06
30358 H 120.36701390808405 134.6785383603408 85.16310408019572 H 0.0 **** 0.06
30359 H 119.9334494171983 134.08870699360958 83.53947593730027 H 0.0 **** 0.06
30360 H 119.69520033306775 135.80360351058576 83.95689162638448 H 0.0 **** 0.06
30361 C 101.80206680603143 103.13341270232863 85.54719837961093 C 0.0 **** -0.24
30362 H 101.99921629362123 103.71807535759544 84.64836436975129 H 0.0 **** 0.06
30363 H 101.28388562612722 102.2140063729696 85.27572621312395 H 0.0 **** 0.06
30364 H 101.18036442645493 103.71490805924003 86.22781074212011 H 0.0 **** 0.06
30365 H 102.7451411891698 102.88947788320003 86.03549580380864 H 0.0 **** 0.06
30366 C 13.543646217924447 25.828014834010496 112.18315116944453 C 0.0 **** -0.24
30367 H 14.396501764958828 25.554441436883337 111.56094062369695 H 0.0 **** 0.06
30368 H 13.307117922203872 26.881627009824506 112.03347932930652 H 0.0 **** 0.06
30369 H 13.789075361963398 25.655738947467235 113.23055863620877 H 0.0 **** 0.06
30370 H 12.68277364657439 25.218800255436157 111.90617292647946 H 0.0 **** 0.06
30371 C 133.13642168563885 55.571807596298584 37.61726650886914 C 0.0 **** -0.24
30372 H 133.04685904588572 55.12331586650656 36.627515213024566 H 0.0 **** 0.06
30373 H 132.15935714785903 55.585051662599966 38.09912886779281 H 0.0 **** 0.06
30374 H 133.50800627961925 56.59224222700671 37.52061260740683 H 0.0 **** 0.06
30375 H 133.83162242297058 54.98668762994656 38.21898607827455 H 0.0 **** 0.06
30376 C 139.76724975798365 38.365402731569816 21.920729694793714 C 0.0 **** -0.24
30377 H 140.7808061154948 38.42009320286665 21.523110063188106 H 0.0 **** 0.06
30378 H 139.35801731493194 37.37174900072577 21.735152170202227 H 0.0 **** 0.06
30379 H 139.1439893070124 39.11281724657816 21.43045750418039 H 0.0 **** 0.06
30380 H 139.7877846467635 38.5554332840418 22.99382409989378 H 0.0 **** 0.06
30381 C 100.96910902911407 108.00080336894028 18.432105100889828 C 0.0 **** -0.24
30382 H 101.88851947275228 107.82782285407474 18.991962314088966 H 0.0 **** 0.06
30383 H 101.14529774207989 108.76051761210665 17.669365443737604 H 0.0 **** 0.06
30384 H 100.1885421540004 108.34283129732431 19.11237356756537 H 0.0 **** 0.06
30385 H 100.65454965621518 107.0729002773369 17.955738544120805 H 0.0 **** 0.06
30386 C 82.49548820976675 25.54868878773479 106.86074084453634 C 0.0 **** -0.24
30387 H 82.46427903119188 24.67574815367246 106.20827662368305 H 0.0 **** 0.06
30388 H 81.77891417155769 25.420190390907663 107.672335405419 H 0.0 **** 0.06
30389 H 82.23934912097738 26.439560069972686 106.28799134685715 H 0.0 **** 0.06
30390 H 83.49801762898893 25.657515483416404 107.27419023594064 H 0.0 **** 0.06
30391 C 75.20492951247127 35.27748536792353 126.13730044408086 C 0.0 **** -0.24
30392 H 74.64220990144793 34.368818695959305 125.9208923543654 H 0.0 **** 0.06
30393 H 76.13795325022761 35.269346544710004 125.57445647833774 H 0.0 **** 0.06
30394 H 75.42385756988756 35.32287796852086 127.20480406342699 H 0.0 **** 0.06
30395 H 74.6137516428737 36.14795089606929 125.85112666702355 H 0.0 **** 0.06
30396 C 10.243698256043807 127.73684987696264 5.051073143502975 C 0.0 **** -0.24
30397 H 11.16385973475763 127.30913692662307 5.4488499290533206 H 0.0 **** 0.06
30398 H 10.27215368405863 128.82157611467474 5.15617876228773 H 0.0 **** 0.06
30399 H 9.391665185950089 127.340754082502 5.6035952397442195 H 0.0 **** 0.06
30400 H 10.147014041909266 127.47532278944497 3.9972868054094164 H 0.0 **** 0.06
30401 C 27.446016023042233 90.2960952368483 123.32923562361844 C 0.0 **** -0.24
30402 H 28.000885175692886 91.21860185748714 123.16356251773871 H 0.0 **** 0.06
30403 H 27.835419308566614 89.51539980925439 122.67494388768634 H 0.0 **** 0.06
30404 H 26.39066104415616 90.46250957703701 123.10913766510029 H 0.0 **** 0.06
30405 H 27.555035583808206 89.98841228061153 124.36862764652051 H 0.0 **** 0.06
30406 C 135.70080827958867 70.12403773213595 95.38765561569491 C 0.0 **** -0.24
30407 H 135.9144189705268 70.32011617693257 94.33688227337454 H 0.0 **** 0.06
30408 H 136.5434431747017 69.59756647398336 95.83668053264002 H 0.0 **** 0.06
30409 H 134.80352356764277 69.51082501539588 95.46729969606311 H 0.0 **** 0.06
30410 H 135.5434088102845 71.06912554943085 95.90915576030716 H 0.0 **** 0.06
30411 C 67.55784027957466 58.68755202058546 132.632851397692 C 0.0 **** -0.24
30412 H 66.55155829472773 58.575779022776715 133.03489642093106 H 0.0 **** 0.06
30413 H 67.78069836839913 59.74723179776112 132.5027898749697 H 0.0 **** 0.06
30414 H 67.6216760975438 58.1814023632233 131.6694312277202 H 0.0 **** 0.06
30415 H 68.27649043288648 58.24633939240391 133.3233803717023 H 0.0 **** 0.06
30416 C 76.79964813929266 112.26943842944253 39.882254632672556 C 0.0 **** -0.24
30417 H 76.14866500504156 112.47711512513042 39.03384837135792 H 0.0 **** 0.06
30418 H 77.709731366928 112.86341662021478 39.79516647141841 H 0.0 **** 0.06
30419 H 77.05687421962054 111.20954552758188 39.89135094736807 H 0.0 **** 0.06
30420 H 76.28472880591785 112.52652534861328 40.8073504363785 H 0.0 **** 0.06
30421 C 52.73395301448312 39.77372587809225 32.9929201303064 C 0.0 **** -0.24
30422 H 51.964000844077205 40.248555473750855 33.60212737294319 H 0.0 **** 0.06
30423 H 52.69695667572897 40.17683544941144 31.98115592063209 H 0.0 **** 0.06
30424 H 52.56136653499151 38.69827117809717 32.96345905688139 H 0.0 **** 0.06
30425 H 53.71419596928183 39.97259272641742 33.427708219088515 H 0.0 **** 0.06
30426 C 57.32915630531531 115.47792526716097 134.46174194349564 C 0.0 **** -0.24
30427 H 57.58601835098422 114.4263993212013 134.5896206675962 H 0.0 **** 0.06
30428 H 58.22062516066654 116.08846650049071 134.60620851226884 H 0.0 **** 0.06
30429 H 56.573136663012534 115.75898503295764 135.19468709175783 H 0.0 **** 0.06
30430 H 56.93751248941193 115.63687521908327 133.45722867182525 H 0.0 **** 0.06
30431 C 38.676759698673436 53.46282506735632 98.30122480390855 C 0.0 **** -0.24
30432 H 39.44165677884291 53.267630400397564 97.54932559959633 H 0.0 **** 0.06
30433 H 39.13785407462865 53.91119446228117 99.18077850988294 H 0.0 **** 0.06
30434 H 38.19531429549721 52.525650153494695 98.58056760717216 H 0.0 **** 0.06
30435 H 37.931392929265 54.14556504596962 97.89229396227762 H 0.0 **** 0.06
30436 C 44.961068030071885 63.81422258070182 50.5500252557143 C 0.0 **** -0.24
30437 H 45.776556047865355 64.33320099385526 50.045803461629646 H 0.0 **** 0.06
30438 H 45.37147081960974 63.04618025037192 51.20637612975841 H 0.0 **** 0.06
30439 H 44.31157890924786 63.3505536099875 49.8085093749518 H 0.0 **** 0.06
30440 H 44.38697698144314 64.52790775269669 51.14159255831291 H 0.0 **** 0.06
30441 C 0.40975557508181737 60.56524612910982 34.47997776839594 C 0.0 **** -0.24
30442 H -0.235803596815515 60.03498839794801 33.78026999745859 H 0.0 **** 0.06
30443 H -0.0798322350145213 60.623373831632165 35.4523186865695 H 0.0 **** 0.06
30444 H 0.5987893045344777 61.572786865693786 34.10771459720186 H 0.0 **** 0.06
30445 H 1.3542753682045827 60.03147521655234 34.57872903171295 H 0.0 **** 0.06
30446 C 77.77589312681883 60.34165051440203 29.34191108535512 C 0.0 **** -0.24
30447 H 77.22292186243219 61.10830505603174 28.79868690144498 H 0.0 **** 0.06
30448 H 78.47572776649473 60.81728194717171 30.02925316040455 H 0.0 **** 0.06
30449 H 78.32658583342669 59.722048026148826 28.633146485750373 H 0.0 **** 0.06
30450 H 77.07957462402995 59.72035039041012 29.90330889883161 H 0.0 **** 0.06
30451 C 23.58912518372486 72.883188593001 6.850083458606758 C 0.0 **** -0.24
30452 H 24.0830369015018 72.4066827686481 6.003238541852813 H 0.0 **** 0.06
30453 H 23.030403655847323 72.13428897313003 7.4126459626751 H 0.0 **** 0.06
30454 H 22.906720674858718 73.65134366976747 6.487386994438623 H 0.0 **** 0.06
30455 H 24.339013599807544 73.33918635806128 7.4975920381959575 H 0.0 **** 0.06
30456 C 59.925806848163774 94.88693274678624 74.63025808054203 C 0.0 **** -0.24
30457 H 59.81133727192676 93.83627944953278 74.3646225466743 H 0.0 **** 0.06
30458 H 60.21440116213242 94.96653864327186 75.67853196510936 H 0.0 **** 0.06
30459 H 58.980693457724755 95.40696109828505 74.47259670995722 H 0.0 **** 0.06
30460 H 60.697036993472324 95.33721933932998 74.00646654373399 H 0.0 **** 0.06
30461 C 99.52751739249678 70.1455333354212 13.584421795677258 C 0.0 **** -0.24
30462 H 100.44638429148665 69.64488580271124 13.888894368132924 H 0.0 **** 0.06
30463 H 99.06995796780134 70.62174680328802 14.450897387177747 H 0.0 **** 0.06
30464 H 98.83734752046564 69.41322728606524 13.16442258888111 H 0.0 **** 0.06
30465 H 99.75750671370014 70.90118027084176 12.832741309499113 H 0.0 **** 0.06
30466 C 96.87007315113715 52.920305141271285 10.521820746389324 C 0.0 **** -0.24
30467 H 97.64870511156292 52.55043250952559 9.855133129431067 H 0.0 **** 0.06
30468 H 96.19866287141687 53.57644889526608 9.967174423240863 H 0.0 **** 0.06
30469 H 97.32654039911677 53.475407243492214 11.340732317322932 H 0.0 **** 0.06
30470 H 96.30586432274865 52.07824559646957 10.923121172576202 H 0.0 **** 0.06
30471 C 45.90499022375424 70.09479436751721 58.62311736631132 C 0.0 **** -0.24
30472 H 45.25776349392723 69.30810400039812 58.23376434049919 H 0.0 **** 0.06
30473 H 46.839055259853296 70.10659059702036 58.06160490388963 H 0.0 **** 0.06
30474 H 46.11540053122596 69.90358804101598 59.67550491400472 H 0.0 **** 0.06
30475 H 45.40675292936376 71.05865399287049 58.52163291410784 H 0.0 **** 0.06
30476 C 16.15459972894441 108.10610291095959 123.2443910218542 C 0.0 **** -0.24
30477 H 15.694610921973911 108.81989579117543 122.56029164250401 H 0.0 **** 0.06
30478 H 15.437991527971256 107.32069805359079 123.48475906356401 H 0.0 **** 0.06
30479 H 16.452576953979232 108.61990549883403 124.15760146355541 H 0.0 **** 0.06
30480 H 17.032409630938012 107.66590964908339 122.77112304982904 H 0.0 **** 0.06
30481 C 33.94842439951128 135.11239143720522 109.95374947381761 C 0.0 **** -0.24
30482 H 34.79177738398156 134.55208745653948 110.3575218035562 H 0.0 **** 0.06
30483 H 34.285956259663394 135.72062608695353 109.11457741161779 H 0.0 **** 0.06
30484 H 33.53675482583041 135.7580400117958 110.72923832597543 H 0.0 **** 0.06
30485 H 33.1804271939357 134.41696035059732 109.61395567245528 H 0.0 **** 0.06
30486 C 37.45901840642398 102.92462286154449 94.5607544609806 C 0.0 **** -0.24
30487 H 36.63902463565779 103.45026860325203 95.04899684098058 H 0.0 **** 0.06
30488 H 37.97184802278622 103.60419300602109 93.88010616759763 H 0.0 **** 0.06
30489 H 37.06484969977072 102.07674149175415 94.00004942771999 H 0.0 **** 0.06
30490 H 38.16090679597954 102.56689829063004 95.31459977077732 H 0.0 **** 0.06
30491 C 66.89635555560278 116.1832519741745 69.40223394823416 C 0.0 **** -0.24
30492 H 67.65131853385384 116.46505171285979 68.66789497446975 H 0.0 **** 0.06
30493 H 65.90507556516474 116.4154347251088 69.01079158967073 H 0.0 **** 0.06
30494 H 67.06218187857411 116.73921185288829 70.32522374105915 H 0.0 **** 0.06
30495 H 66.96682613170282 115.11416291566483 69.60351830863264 H 0.0 **** 0.06
30496 C 63.21721041693945 83.37233284046579 25.268208924630727 C 0.0 **** -0.24
30497 H 63.55508229435284 82.55655896530544 25.90766533048469 H 0.0 **** 0.06
30498 H 63.94711945819009 84.18119692982197 25.29652077677727 H 0.0 **** 0.06
30499 H 62.25449947023496 83.73753054309782 25.625083052279365 H 0.0 **** 0.06
30500 H 63.11335041148844 83.01176051552494 24.245388048641246 H 0.0 **** 0.06
30501 C 102.08354648940804 74.1034822239423 101.78244064810042 C 0.0 **** -0.24
30502 H 101.56013807239822 74.60242088814302 102.5979317436431 H 0.0 **** 0.06
30503 H 102.75954451681065 73.35199878467458 102.19104464727894 H 0.0 **** 0.06
30504 H 102.65566400522198 74.83796513110383 101.21528783040806 H 0.0 **** 0.06
30505 H 101.35832991636664 73.62129524167145 101.12679398863689 H 0.0 **** 0.06
30506 C 133.98935466771727 96.1875497876654 3.0798629786403886 C 0.0 **** -0.24
30507 H 134.15680202285475 95.9913383402235 4.139389945110548 H 0.0 **** 0.06
30508 H 132.98391168966856 96.58281817038619 2.937834157703559 H 0.0 **** 0.06
30509 H 134.09834307972488 95.25946342726294 2.518001638605881 H 0.0 **** 0.06
30510 H 134.72073639681835 96.91449023194784 2.726225781583974 H 0.0 **** 0.06
30511 C 10.221220172109696 41.319184694014155 27.347468279486122 C 0.0 **** -0.24
30512 H 10.218826219186411 41.5941155654494 28.40178471247748 H 0.0 **** 0.06
30513 H 10.032931294525838 40.25014997698299 27.251042420795727 H 0.0 **** 0.06
30514 H 11.191288142220827 41.558387374660384 26.911675771414025 H 0.0 **** 0.06
30515 H 9.44181783208856 41.87438737493895 26.82632354213257 H 0.0 **** 0.06
30516 C 65.49326550480562 138.7477958815226 92.38010392311836 C 0.0 **** -0.24
30517 H 66.52018386554408 138.67743781202327 92.738937207957 H 0.0 **** 0.06
30518 H 65.42414781033239 138.30578410198697 91.38655010350055 H 0.0 **** 0.06
30519 H 65.19575620357064 139.79535785928405 92.33462855736606 H 0.0 **** 0.06
30520 H 64.8332640760142 138.21251763632333 93.06273062249433 H 0.0 **** 0.06
30521 C 136.85923017578833 1.1690066323792507 29.139655838018626 C 0.0 **** -0.24
30522 H 136.65967391216057 0.767042665924059 30.132783798658522 H 0.0 **** 0.06
30523 H 137.5011812982033 0.47870486143646573 28.590788645314376 H 0.0 **** 0.06
30524 H 137.35654761857717 2.133410092477181 29.230700432606085 H 0.0 **** 0.06
30525 H 135.91848070156962 1.2941629003701394 28.603574473133534 H 0.0 **** 0.06
30526 C 66.06172686458044 94.44406493105903 81.24138386903553 C 0.0 **** -0.24
30527 H 66.79171892601906 94.47960035912064 82.04941460774194 H 0.0 **** 0.06
30528 H 66.42265035102574 93.78205272247621 80.45338448531965 H 0.0 **** 0.06
30529 H 65.91925926729365 95.44658570094413 80.83674448796927 H 0.0 **** 0.06
30530 H 65.11304280161099 94.0696586268617 81.62486832358638 H 0.0 **** 0.06
30531 C 62.47088284718592 129.54065507211916 59.92698640873758 C 0.0 **** -0.24
30532 H 61.66261579221765 130.10236966819068 60.39566326244136 H 0.0 **** 0.06
30533 H 62.542429405986184 128.55525236158783 60.38739219149696 H 0.0 **** 0.06
30534 H 63.41126586956079 130.07487981661464 60.06221061379432 H 0.0 **** 0.06
30535 H 62.26585351983903 129.43016336853 58.86231911802312 H 0.0 **** 0.06
30536 C 16.06245776119954 53.9903840567645 61.178032301938856 C 0.0 **** -0.24
30537 H 17.070700167693474 54.12670127530481 60.78553541078878 H 0.0 **** 0.06
30538 H 15.356491975105826 54.56099174171712 60.57385259772852 H 0.0 **** 0.06
30539 H 16.02486070865882 54.34049678407379 62.209206584858435 H 0.0 **** 0.06
30540 H 15.800008216326603 52.93320440822211 61.14361855989509 H 0.0 **** 0.06
30541 C 65.57841647700292 63.94147648447267 52.80567107565088 C 0.0 **** -0.24
30542 H 65.89069395938813 63.44658359958602 51.886516209990106 H 0.0 **** 0.06
30543 H 64.67752190153752 63.461741687558344 53.18819477950815 H 0.0 **** 0.06
30544 H 65.3718765792197 64.99209006589899 52.60036327925819 H 0.0 **** 0.06
30545 H 66.37347621544077 63.86567989017499 53.54621189479005 H 0.0 **** 0.06
30546 C 26.727312514589414 125.65415437630716 137.9528596664415 C 0.0 **** -0.24
30547 H 25.86960797372052 126.32780822157429 137.9617690328917 H 0.0 **** 0.06
30548 H 26.776635420066555 125.14331180979931 136.99154390444437 H 0.0 **** 0.06
30549 H 26.62112242193183 124.92014245473062 138.75099938781545 H 0.0 **** 0.06
30550 H 27.641284194268394 126.22890760730293 138.10726643719852 H 0.0 **** 0.06
30551 C 24.18594067497132 37.68261878595841 123.2113190092723 C 0.0 **** -0.24
30552 H 23.741219794006547 36.68729346244753 123.22084549595456 H 0.0 **** 0.06
30553 H 24.425146980450116 37.98281540437631 124.23163868598834 H 0.0 **** 0.06
30554 H 23.47970703940713 38.391322097701874 122.77970514244782 H 0.0 **** 0.06
30555 H 25.097174159845835 37.66805469333306 122.61395623086042 H 0.0 **** 0.06
30556 C 126.31289064785913 119.87819314558244 38.93715918057654 C 0.0 **** -0.24
30557 H 125.94417988376955 120.60071289397392 38.208836108948844 H 0.0 **** 0.06
30558 H 127.26276279896678 120.22476818223582 39.343125308038964 H 0.0 **** 0.06
30559 H 126.45431281441277 118.91297910858235 38.45153432291244 H 0.0 **** 0.06
30560 H 125.58741869359588 119.77512192253609 39.745094037117724 H 0.0 **** 0.06
30561 C 124.63548323255944 3.461043811928988 107.15286429577168 C 0.0 **** -0.24
30562 H 123.87385229766662 3.4267177309064607 107.93097474746622 H 0.0 **** 0.06
30563 H 124.39010277406447 4.2477035456492445 106.4391691202137 H 0.0 **** 0.06
30564 H 124.67152349182538 2.5011878570099952 106.63684241946771 H 0.0 **** 0.06
30565 H 125.60574403230424 3.667850428328819 107.60347927794709 H 0.0 **** 0.06
30566 C 37.103220222578074 40.43661695619778 76.4209996859189 C 0.0 **** -0.24
30567 H 36.10101873083542 40.64315282902145 76.79508784632719 H 0.0 **** 0.06
30568 H 37.840020899266364 40.772396455630776 77.15106804556342 H 0.0 **** 0.06
30569 H 37.25629427751667 40.96508148911715 75.48040017583241 H 0.0 **** 0.06
30570 H 37.21606505523002 39.36452396445458 76.25752923158677 H 0.0 **** 0.06
30571 C 123.88323708417039 11.302222276587486 128.0011610096922 C 0.0 **** -0.24
30572 H 123.06201301787391 11.599594255829004 128.65270594479014 H 0.0 **** 0.06
30573 H 124.80300848567936 11.234896346403673 128.58249456297818 H 0.0 **** 0.06
30574 H 124.00659435003445 12.04369881904438 127.21163809727966 H 0.0 **** 0.06
30575 H 123.66112749470257 10.331954503709426 127.55718616212238 H 0.0 **** 0.06
30576 C 43.46481103401658 98.47088283054534 98.07359202380651 C 0.0 **** -0.24
30577 H 43.56402899106976 97.64791141100164 98.78220601364822 H 0.0 **** 0.06
30578 H 43.57966980915441 99.41895184512995 98.59946132508774 H 0.0 **** 0.06
30579 H 42.48122466427438 98.43078842142201 97.60548606238423 H 0.0 **** 0.06
30580 H 44.23607394036512 98.38493394997127 97.30823053294701 H 0.0 **** 0.06
30581 C 39.627633981384776 70.93250249367676 75.07539935302295 C 0.0 **** -0.24
30582 H 39.388604378021995 70.40550198431094 75.99992316238452 H 0.0 **** 0.06
30583 H 39.484096513682516 72.00319526244553 75.22092903874781 H 0.0 **** 0.06
30584 H 38.97096757731313 70.58232137658311 74.27884594892754 H 0.0 **** 0.06
30585 H 40.664740583704415 70.7371819233822 74.80338345177901 H 0.0 **** 0.06
30586 C 44.60753246802685 100.48054302887303 109.08939311745229 C 0.0 **** -0.24
30587 H 45.5665408039948 100.5949906668508 109.59534239922414 H 0.0 **** 0.06
30588 H 44.42111618946316 99.42349989559332 108.89882372000602 H 0.0 **** 0.06
30589 H 44.62889502553938 101.02212204065432 108.14455416773421 H 0.0 **** 0.06
30590 H 43.813599823300166 100.8815071207328 109.72026528573872 H 0.0 **** 0.06
30591 C 89.93795537273837 91.07410708622979 101.86225207662582 C 0.0 **** -0.24
30592 H 89.52060379791467 90.0746042289567 101.97901055272948 H 0.0 **** 0.06
30593 H 90.46393288320897 91.13830393609649 100.9091411874578 H 0.0 **** 0.06
30594 H 90.63559379896643 91.27398225002598 102.6763942642159 H 0.0 **** 0.06
30595 H 89.13432730129158 91.80941288928335 101.88344510639942 H 0.0 **** 0.06
30596 C 22.28661379196359 33.717033141302096 58.7610530435293 C 0.0 **** -0.24
30597 H 21.97679174890166 32.93805283900302 58.06459566810068 H 0.0 **** 0.06
30598 H 22.222200108083996 33.33853522072653 59.78127267903247 H 0.0 **** 0.06
30599 H 21.632807205524614 34.58201301436448 58.651651753950034 H 0.0 **** 0.06
30600 H 23.314460599042917 34.0085241589378 58.545718858496485 H 0.0 **** 0.06
30601 C 72.43515998395213 10.360278502609226 55.88394702347438 C 0.0 **** -0.24
30602 H 72.60346706451503 11.310422148092364 55.37711601557595 H 0.0 **** 0.06
30603 H 72.67679000595774 10.464150822234906 56.94162105597823 H 0.0 **** 0.06
30604 H 73.07074028508214 9.593986523286105 55.438953510093 H 0.0 **** 0.06
30605 H 71.38970163112299 10.071200433450102 55.777019040063266 H 0.0 **** 0.06
30606 C 117.00613954780867 38.0974225560244 92.49360305017635 C 0.0 **** -0.24
30607 H 117.44674908534297 39.07871168570578 92.66998269467871 H 0.0 **** 0.06
30608 H 116.80552733660743 37.97566709549103 91.42953857372382 H 0.0 **** 0.06
30609 H 116.07503053938136 38.011647367393266 93.05298439569091 H 0.0 **** 0.06
30610 H 117.70027518361782 37.32350511850497 92.82325965046661 H 0.0 **** 0.06
30611 C 83.30539608781363 137.68279044118546 51.38223893193614 C 0.0 **** -0.24
30612 H 84.24848705245378 138.05241530613907 50.9811918839051 H 0.0 **** 0.06
30613 H 82.60095261200333 137.5235311110742 50.56576066667927 H 0.0 **** 0.06
30614 H 82.8951491386534 138.4144961672266 52.07839845224865 H 0.0 **** 0.06
30615 H 83.47651027858332 136.7413824201968 51.904174523101545 H 0.0 **** 0.06
30616 C 71.30202738106534 38.692042064787906 113.4554794857151 C 0.0 **** -0.24
30617 H 70.79099551331501 38.49707689728439 114.3983993746981 H 0.0 **** 0.06
30618 H 72.05424878167189 39.466036936292284 113.6031132845527 H 0.0 **** 0.06
30619 H 70.57757069553355 39.02433366098788 112.71175728331502 H 0.0 **** 0.06
30620 H 71.78343948386821 37.77748970287708 113.10899389296827 H 0.0 **** 0.06
30621 C 95.14335013946916 119.0079343727108 60.28415424543296 C 0.0 **** -0.24
30622 H 95.64656656123819 119.55149307141313 59.48575397989282 H 0.0 **** 0.06
30623 H 94.2732990568858 119.57370540294538 60.61801824627652 H 0.0 **** 0.06
30624 H 95.83086960996718 118.8715020835153 61.11957279528336 H 0.0 **** 0.06
30625 H 94.82369011094065 118.03324211356131 59.91544654989886 H 0.0 **** 0.06
30626 C 80.62589223344739 58.74315092728321 57.88748405311523 C 0.0 **** -0.24
30627 H 81.55902238049134 58.393275828427846 58.32907372940301 H 0.0 **** 0.06
30628 H 80.03497772115884 57.886967994760795 57.56019094878471 H 0.0 **** 0.06
30629 H 80.84633958057424 59.38162452586707 57.03163222317946 H 0.0 **** 0.06
30630 H 80.0639774404219 59.310287596308996 58.62952896885659 H 0.0 **** 0.06
30631 C 52.861577645220535 112.2192629181435 142.48021500127194 C 0.0 **** -0.24
30632 H 52.28132905433435 112.95386162515973 141.92042104067022 H 0.0 **** 0.06
30633 H 53.90642395015229 112.27279119367671 142.1730117201552 H 0.0 **** 0.06
30634 H 52.47447395247613 111.22081793985745 142.27953813356456 H 0.0 **** 0.06
30635 H 52.78433996211514 112.43210332447438 143.5466352825684 H 0.0 **** 0.06
30636 C 42.86099948038765 140.32366115743486 39.6618843476455 C 0.0 **** -0.24
30637 H 42.450157591265 139.3198072197331 39.7696020850976 H 0.0 **** 0.06
30638 H 42.757388807590885 140.86051355659876 40.60533666107813 H 0.0 **** 0.06
30639 H 42.31809046016738 140.8550614868486 38.879750461655505 H 0.0 **** 0.06
30640 H 43.9146998854076 140.25851455009453 39.39265540260695 H 0.0 **** 0.06
30641 C 25.56658736549997 141.0604908953862 45.160277346125625 C 0.0 **** -0.24
30642 H 24.779895981165225 141.81134859121823 45.24424968437944 H 0.0 **** 0.06
30643 H 26.531848747289757 141.52301351756378 45.36485534909593 H 0.0 **** 0.06
30644 H 25.567550780154363 140.6468350261033 44.15265156407273 H 0.0 **** 0.06
30645 H 25.3849700870187 140.26323199500757 45.88060940800811 H 0.0 **** 0.06
30646 C 14.835414392904397 9.34550203562413 46.079031324020406 C 0.0 **** -0.24
30647 H 15.713780377695088 9.941297060853344 46.32695948938401 H 0.0 **** 0.06
30648 H 14.385312980447878 9.725426970739015 45.16151582675553 H 0.0 **** 0.06
30649 H 14.112738475089458 9.408760933889795 46.89202621183149 H 0.0 **** 0.06
30650 H 15.1309753870581 8.305715176833012 45.93578355234082 H 0.0 **** 0.06
30651 C 58.73119946874132 64.61920197860758 10.119375408208754 C 0.0 **** -0.24
30652 H 58.65567854312229 63.54441660389216 9.955247800777244 H 0.0 **** 0.06
30653 H 57.899753752992154 65.12244397382821 9.625648335851707 H 0.0 **** 0.06
30654 H 59.67247742476094 64.98365269289414 9.708980055305403 H 0.0 **** 0.06
30655 H 58.69767589751123 64.82509482362966 11.190062701920823 H 0.0 **** 0.06
30656 C 58.21346521650547 56.39747781130676 107.34908328568191 C 0.0 **** -0.24
30657 H 58.01019493245026 57.435688021965575 107.08654634063974 H 0.0 **** 0.06
30658 H 57.27115414890993 55.864781169872074 107.47968598781797 H 0.0 **** 0.06
30659 H 58.782303319106376 56.363245698019 108.2785800842468 H 0.0 **** 0.06
30660 H 58.789517650238366 55.92744646716551 106.55250059008607 H 0.0 **** 0.06
30661 C 75.02218928005979 115.4937866427681 19.753976592287415 C 0.0 **** -0.24
30662 H 74.65794774308253 114.68490912206914 19.120746659042368 H 0.0 **** 0.06
30663 H 76.06635944463378 115.31014412474781 20.011365566170667 H 0.0 **** 0.06
30664 H 74.42568874179963 115.5402111609124 20.664129157338266 H 0.0 **** 0.06
30665 H 74.94155549610247 116.43968385797808 19.217889314068543 H 0.0 **** 0.06
30666 C 144.68114222118191 107.35863204901186 47.96712800700499 C 0.0 **** -0.24
30667 H 144.12404369826686 106.57320232122738 48.4777935257998 H 0.0 **** 0.06
30668 H 145.271368514539 107.91690580937502 48.69423546440444 H 0.0 **** 0.06
30669 H 143.985009783613 108.03273468160465 47.468652190242835 H 0.0 **** 0.06
30670 H 145.34565146154324 106.91012375883231 47.2283765628157 H 0.0 **** 0.06
30671 C 71.65661107605234 59.963400463708865 76.19815980146552 C 0.0 **** -0.24
30672 H 72.45708613306367 59.97019859646065 75.45866582211016 H 0.0 **** 0.06
30673 H 71.96793473397192 59.37853925816495 77.06442125340159 H 0.0 **** 0.06
30674 H 70.7620349978802 59.51816431626577 75.76133905708794 H 0.0 **** 0.06
30675 H 71.439878571377 60.98546621662922 76.50772479435767 H 0.0 **** 0.06
30676 C 128.12819719402086 25.101599069604504 122.2496729923497 C 0.0 **** -0.24
30677 H 128.54773309294046 26.002483281261703 121.80059480950922 H 0.0 **** 0.06
30678 H 127.04596391122186 25.206240033090964 122.32830058343592 H 0.0 **** 0.06
30679 H 128.55239551367384 24.96070812690212 123.24300393133046 H 0.0 **** 0.06
30680 H 128.36597764643295 24.23977377688638 121.62602202989473 H 0.0 **** 0.06
30681 C 121.09318138814297 53.5488419210657 59.541771721665185 C 0.0 **** -0.24
30682 H 121.94419840945352 54.189325272897264 59.77433573604455 H 0.0 **** 0.06
30683 H 121.33546586621662 52.920587301789425 58.68386652967075 H 0.0 **** 0.06
30684 H 120.2266928101177 54.16788684920894 59.306478556850834 H 0.0 **** 0.06
30685 H 120.86723178585663 52.918669351298064 60.402200233325175 H 0.0 **** 0.06
30686 C 15.787763379109577 102.21061385538539 114.40451863554323 C 0.0 **** -0.24
30687 H 16.02882623756156 101.59771942992833 115.273028287814 H 0.0 **** 0.06
30688 H 16.136319684697128 103.23076999088735 114.57140764972026 H 0.0 **** 0.06
30689 H 14.708311417672263 102.21596052209989 114.25248974457041 H 0.0 **** 0.06
30690 H 16.27703650327959 101.79872424466569 113.52262204447761 H 0.0 **** 0.06
30691 C 75.5300999571975 140.1581166393662 135.38758298479001 C 0.0 **** -0.24
30692 H 75.35190684624261 141.180517528487 135.05323351786097 H 0.0 **** 0.06
30693 H 74.82869540529268 139.4871979994389 134.89125169970796 H 0.0 **** 0.06
30694 H 75.38735779715866 140.09966648014964 136.4664644133268 H 0.0 **** 0.06
30695 H 76.55052039617772 139.86776613778392 135.13902800675982 H 0.0 **** 0.06
30696 C 93.03805482966106 124.13845131273298 80.6726036993227 C 0.0 **** -0.24
30697 H 93.71018465090833 124.9643767616002 80.43735573868106 H 0.0 **** 0.06
30698 H 93.48658795310803 123.5132194732455 81.44435499525613 H 0.0 **** 0.06
30699 H 92.86635434223513 123.54363279592452 79.77624957754234 H 0.0 **** 0.06
30700 H 92.088421572225 124.53579392689963 81.03201078434844 H 0.0 **** 0.06
30701 C 120.45244729471813 40.56429602433684 75.77400180814686 C 0.0 **** -0.24
30702 H 119.45769444656958 40.15695283086038 75.95777949930604 H 0.0 **** 0.06
30703 H 120.70077349043237 40.45132994499912 74.71932526832038 H 0.0 **** 0.06
30704 H 121.18145163204258 40.02619614410466 76.38009594460581 H 0.0 **** 0.06
30705 H 120.46647841564845 41.62102154135633 76.04096661334492 H 0.0 **** 0.06
30706 C 46.106422189218634 144.74660466884663 6.441448977197439 C 0.0 **** -0.24
30707 H 46.875655508741985 144.11865153772507 5.992725419869252 H 0.0 **** 0.06
30708 H 46.354059455155735 144.93091736305362 7.487336427447936 H 0.0 **** 0.06
30709 H 45.14273926362149 144.24014106857652 6.380083072803476 H 0.0 **** 0.06
30710 H 46.05363972202403 145.69485719537437 5.907202758394355 H 0.0 **** 0.06
30711 C 106.87409700433045 78.79862411016865 46.83152890026874 C 0.0 **** -0.24
30712 H 107.13038045872668 79.07318979217106 47.85489901155809 H 0.0 **** 0.06
30713 H 106.91138407721814 79.68650090723855 46.198245014396704 H 0.0 **** 0.06
30714 H 105.86905220788617 78.37816524153652 46.808503609358155 H 0.0 **** 0.06
30715 H 107.5859889627967 78.06035316546348 46.4642623925847 H 0.0 **** 0.06
30716 C 95.68177987213862 138.225727933016 127.12569683907833 C 0.0 **** -0.24
30717 H 96.5493025538823 137.6227134117308 126.8598402465997 H 0.0 **** 0.06
30718 H 95.88427942692617 139.27261829142304 126.89825139275409 H 0.0 **** 0.06
30719 H 95.47629600016194 138.1171418473585 128.19057304374186 H 0.0 **** 0.06
30720 H 94.81671211745335 137.88942408667324 126.55282210076183 H 0.0 **** 0.06
30721 C 142.1901954161221 113.64309624648774 68.78234244315954 C 0.0 **** -0.24
30722 H 142.22856302126337 114.69187678488782 68.48533020055797 H 0.0 **** 0.06
30723 H 141.45937897718494 113.11865074928079 68.1669717118173 H 0.0 **** 0.06
30724 H 141.899574622185 113.5740752404642 69.83084784252182 H 0.0 **** 0.06
30725 H 143.17291790694264 113.19107861787938 68.64633698034066 H 0.0 **** 0.06
30726 C 5.0433286732881015 37.13560976780798 28.727262955802615 C 0.0 **** -0.24
30727 H 5.224527566901482 36.791513022298986 27.709466195478228 H 0.0 **** 0.06
30728 H 3.9802945107671874 37.343861242294565 28.857319428905697 H 0.0 **** 0.06
30729 H 5.616570288860892 38.04390216936551 28.91161272475229 H 0.0 **** 0.06
30730 H 5.35097834027799 36.363431307163395 29.432080652169788 H 0.0 **** 0.06
30731 C 13.97101769747659 0.2669149881902513 87.12193699769735 C 0.0 **** -0.24
30732 H 13.707674972296857 -0.3868079774543389 87.95464515619364 H 0.0 **** 0.06
30733 H 14.733959156392615 0.9757343321570033 87.44417506927304 H 0.0 **** 0.06
30734 H 13.084596273045058 0.809604245829064 86.7923503498675 H 0.0 **** 0.06
30735 H 14.357061188965474 -0.33346621671381627 86.29820723362948 H 0.0 **** 0.06
30736 C 124.93420519232166 129.3420659797453 55.62276439166095 C 0.0 **** -0.24
30737 H 125.95829961333637 129.64019148440553 55.845278785837706 H 0.0 **** 0.06
30738 H 124.93502171284115 128.357612159599 55.15333072483446 H 0.0 **** 0.06
30739 H 124.4837421134421 130.0676289126754 54.94589415627263 H 0.0 **** 0.06
30740 H 124.35902557601587 129.30299439472273 56.54866059745467 H 0.0 **** 0.06
30741 C 108.3434729116761 18.857605940111284 90.34876808735433 C 0.0 **** -0.24
30742 H 108.66939333774359 18.103825081766132 91.06620675001896 H 0.0 **** 0.06
30743 H 107.25834994728892 18.955877240401378 90.39377749718675 H 0.0 **** 0.06
30744 H 108.63960330915883 18.55444444886743 89.34432604727564 H 0.0 **** 0.06
30745 H 108.80656454559808 19.814118449962137 90.59134561802588 H 0.0 **** 0.06
30746 C 55.47907685781004 118.09744521770823 138.5357107984328 C 0.0 **** -0.24
30747 H 55.073682081471574 117.10317503536056 138.72827990075172 H 0.0 **** 0.06
30748 H 56.15732141448501 118.05313628636837 137.68358291113864 H 0.0 **** 0.06
30749 H 56.021771962388826 118.44438539930054 139.41501986177113 H 0.0 **** 0.06
30750 H 54.662920640404906 118.78541815223825 138.31639335489785 H 0.0 **** 0.06
30751 C 142.59506584096764 89.48449340994691 43.10834554161232 C 0.0 **** -0.24
30752 H 143.10386430199122 90.15731463456731 43.79852494862517 H 0.0 **** 0.06
30753 H 141.74000306093114 89.996619907558 42.66555885637108 H 0.0 **** 0.06
30754 H 142.25058359364115 88.60257539557375 43.64827747066772 H 0.0 **** 0.06
30755 H 143.28485721461058 89.18121641765825 42.321183682079706 H 0.0 **** 0.06
30756 C 35.60423401764456 22.255699911461306 143.61237904023608 C 0.0 **** -0.24
30757 H 36.32345847117955 21.46839294985061 143.38427187978408 H 0.0 **** 0.06
30758 H 35.12821318019223 22.04699477892362 144.56955412835356 H 0.0 **** 0.06
30759 H 34.84654625991857 22.29152185457582 142.82931201440525 H 0.0 **** 0.06
30760 H 36.11994930111217 23.214119217084388 143.66332052366332 H 0.0 **** 0.06
30761 C 142.45951381518563 116.92443568191861 101.61466338328236 C 0.0 **** -0.24
30762 H 143.21384971959966 116.28204733413143 102.06674120970575 H 0.0 **** 0.06
30763 H 141.79764569079055 116.32344006067903 100.98983075406255 H 0.0 **** 0.06
30764 H 142.9481240198372 117.68207643396165 101.00163200115799 H 0.0 **** 0.06
30765 H 141.87779841791408 117.4103929461521 102.39752582367129 H 0.0 **** 0.06
30766 C 130.48521600464548 62.503540448845 57.750768800137166 C 0.0 **** -0.24
30767 H 129.57939670561237 61.98628891788428 57.43497751836492 H 0.0 **** 0.06
30768 H 130.23436676008268 63.517515197767295 58.06254238613087 H 0.0 **** 0.06
30769 H 131.18970365786265 62.54188320920326 56.919358603229796 H 0.0 **** 0.06
30770 H 130.93709115361753 61.96688576733902 58.585578085173324 H 0.0 **** 0.06
30771 C 36.20167482412384 79.17184557412332 119.71525043546609 C 0.0 **** -0.24
30772 H 35.38524498285548 79.88738088528453 119.61130581647188 H 0.0 **** 0.06
30773 H 35.791521122776345 78.17536489586448 119.87704680101746 H 0.0 **** 0.06
30774 H 36.82370376428199 79.45151890231236 120.56576542149645 H 0.0 **** 0.06
30775 H 36.804530893045325 79.1745001872504 118.80733502401387 H 0.0 **** 0.06
30776 C 51.56055134443656 86.91706072388456 68.63813672961862 C 0.0 **** -0.24
30777 H 52.24652085467929 87.4917849272885 68.01686886296126 H 0.0 **** 0.06
30778 H 51.2998246749662 85.98853887324731 68.12717312122611 H 0.0 **** 0.06
30779 H 50.65661595908924 87.49927027214346 68.816724946691 H 0.0 **** 0.06
30780 H 52.03768972598519 86.68659974779501 69.5902352346036 H 0.0 **** 0.06
30781 C 42.418558938426486 33.501487285433605 7.081465374817469 C 0.0 **** -0.24
30782 H 41.35295532751053 33.27056002838574 7.0988575611157785 H 0.0 **** 0.06
30783 H 42.71512264226442 33.91882693144323 8.04363140851575 H 0.0 **** 0.06
30784 H 42.619717228549234 34.22587701593586 6.293069091815255 H 0.0 **** 0.06
30785 H 42.984392672701006 32.58982643009467 6.89056605471535 H 0.0 **** 0.06
30786 C 141.80304493922193 131.93425890021166 39.37189262405661 C 0.0 **** -0.24
30787 H 141.27680723697236 132.88799491495232 39.39661811164488 H 0.0 **** 0.06
30788 H 141.11543349791734 131.14855930045434 39.05872087269664 H 0.0 **** 0.06
30789 H 142.18795797350236 131.70540607499981 40.3650226163875 H 0.0 **** 0.06
30790 H 142.63175923856346 131.99520393364654 38.66581808861325 H 0.0 **** 0.06
30791 C 145.02891077229424 31.21801854791832 7.728943368202977 C 0.0 **** -0.24
30792 H 144.97525328237 32.04952114827111 7.026110385019194 H 0.0 **** 0.06
30793 H 146.02181778286112 31.188842184666363 8.179323616659644 H 0.0 **** 0.06
30794 H 144.84130489063594 30.283980926347084 7.201498061633231 H 0.0 **** 0.06
30795 H 144.27985022568814 31.352436732630096 8.508879851220286 H 0.0 **** 0.06
30796 C 122.66273829324841 63.607344643177015 4.366535358574396 C 0.0 **** -0.24
30797 H 123.32595783134249 63.24982641395363 3.5784735059851585 H 0.0 **** 0.06
30798 H 123.09677877039388 63.37379692202515 5.338759728206668 H 0.0 **** 0.06
30799 H 121.69249363799399 63.11959242719294 4.2739936395718985 H 0.0 **** 0.06
30800 H 122.53799032376249 64.68646647035348 4.273251106330179 H 0.0 **** 0.06
30801 C 40.552162743070426 100.52744497880303 5.258373724022505 C 0.0 **** -0.24
30802 H 40.94785863525172 100.31021900953664 4.266154724740488 H 0.0 **** 0.06
30803 H 41.33687416739187 100.38490284575636 6.00169575369037 H 0.0 **** 0.06
30804 H 39.720611871274826 99.85549123101384 5.472962274815131 H 0.0 **** 0.06
30805 H 40.20298035047355 101.55919929544649 5.2913063553383495 H 0.0 **** 0.06
30806 C 38.90301551243158 55.07008507153114 66.24024426013648 C 0.0 **** -0.24
30807 H 38.56114118368532 54.940664052602045 65.21396896288573 H 0.0 **** 0.06
30808 H 39.267243557089955 56.089280770662725 66.37496997785891 H 0.0 **** 0.06
30809 H 39.709904575234305 54.36680011900975 66.4452764417957 H 0.0 **** 0.06
30810 H 38.07605595332183 54.88597465075739 66.92530344857553 H 0.0 **** 0.06
30811 C 55.313800043213604 63.96453430366739 19.818515939004897 C 0.0 **** -0.24
30812 H 54.92345694273439 64.28080925972552 18.850903755670316 H 0.0 **** 0.06
30813 H 54.514866196053276 64.00061164429388 20.55968465518228 H 0.0 **** 0.06
30814 H 56.120072895006956 64.63192979421592 20.12015508295758 H 0.0 **** 0.06
30815 H 55.6930693748412 62.94623486106161 19.74160134859048 H 0.0 **** 0.06
30816 C 86.30936781410391 136.05787670102234 117.74793101905881 C 0.0 **** -0.24
30817 H 85.24973609503452 136.3164387589428 117.76418705639186 H 0.0 **** 0.06
30818 H 86.90502145218899 136.9590182052794 117.8928124124014 H 0.0 **** 0.06
30819 H 86.55758648165828 135.60817626196967 116.78604799782822 H 0.0 **** 0.06
30820 H 86.52238997847371 135.34766724706765 118.5463387766345 H 0.0 **** 0.06
30821 C 48.31261291863888 69.83963567068682 45.23973244383046 C 0.0 **** -0.24
30822 H 47.31878015855193 70.25950886604934 45.08341911884119 H 0.0 **** 0.06
30823 H 48.610784644861496 69.27288521903355 44.35693603345612 H 0.0 **** 0.06
30824 H 48.295791571191955 69.17913685778322 46.10663973727594 H 0.0 **** 0.06
30825 H 49.0246594703288 70.64616698443211 45.41162426627997 H 0.0 **** 0.06
30826 C 67.9946830151651 27.22507173899865 89.09343343350355 C 0.0 **** -0.24
30827 H 68.09255270213544 26.307163467463 88.51392776514177 H 0.0 **** 0.06
30828 H 67.88718061264149 28.072492492057137 88.41515969198764 H 0.0 **** 0.06
30829 H 68.88394942376681 27.36266151454882 89.70893341308829 H 0.0 **** 0.06
30830 H 67.1152123467919 27.157661374265928 89.73434225079899 H 0.0 **** 0.06
30831 C 117.15328310096076 74.0269418162369 105.21249894021445 C 0.0 **** -0.24
30832 H 117.27932675088086 73.95402228508472 106.29321429703766 H 0.0 **** 0.06
30833 H 116.10568731620019 73.8687129004586 104.95680856441457 H 0.0 **** 0.06
30834 H 117.7652958963164 73.2683469542171 104.72435748628925 H 0.0 **** 0.06
30835 H 117.46503730565509 75.01590725597957 104.87631509425125 H 0.0 **** 0.06
30836 C 75.24268180411055 142.97482473267442 33.48917909264486 C 0.0 **** -0.24
30837 H 75.36170048063111 141.92186235143652 33.74658290109829 H 0.0 **** 0.06
30838 H 74.56228284250803 143.06575373421688 32.64147505179585 H 0.0 **** 0.06
30839 H 76.2123880894306 143.39562005306288 33.224704364307 H 0.0 **** 0.06
30840 H 74.83310638303625 143.51256166138077 34.34352785666232 H 0.0 **** 0.06
30841 C 24.524586420380388 90.22910373464532 41.706449464957444 C 0.0 **** -0.24
30842 H 24.081831767827936 89.61255084140741 42.48900474350364 H 0.0 **** 0.06
30843 H 23.73332834445351 90.72884246018768 41.1472466584235 H 0.0 **** 0.06
30844 H 25.103262006904274 89.59820111124358 41.031919752740166 H 0.0 **** 0.06
30845 H 25.178553334144766 90.97479019513665 42.157604469420534 H 0.0 **** 0.06
30846 C 17.18162095667242 40.304975005643826 10.271260358703216 C 0.0 **** -0.24
30847 H 16.467065093664928 39.79653681068129 9.623581087630157 H 0.0 **** 0.06
30848 H 17.260716871151033 41.351151711515186 9.973166248846383 H 0.0 **** 0.06
30849 H 18.15631928560498 39.82674645812473 10.181491414429019 H 0.0 **** 0.06
30850 H 16.84119922339653 40.245701319734835 11.304670991850884 H 0.0 **** 0.06
30851 C 88.69973572363124 110.47211384889971 8.670791979942635 C 0.0 **** -0.24
30852 H 87.86466686814845 109.7734431235246 8.721842149910877 H 0.0 **** 0.06
30853 H 89.06047841755876 110.53260155512788 7.644207437050426 H 0.0 **** 0.06
30854 H 89.50410180030505 110.12474655539535 9.318672404576773 H 0.0 **** 0.06
30855 H 88.36893058188366 111.45806794032057 8.999564623130691 H 0.0 **** 0.06
30856 C 82.29619311912039 93.74877939011188 145.40128626557635 C 0.0 **** -0.24
30857 H 83.26386086719424 93.61506291401882 144.91722433719158 H 0.0 **** 0.06
30858 H 81.52021116960236 93.27522742473771 144.8004981053298 H 0.0 **** 0.06
30859 H 82.08283064900058 94.81370565789385 145.49793735577015 H 0.0 **** 0.06
30860 H 82.31936228578357 93.29260103875161 146.39137839942782 H 0.0 **** 0.06
30861 C 71.48465327142746 138.6914809510074 69.95350473264564 C 0.0 **** -0.24
30862 H 70.65430130234282 138.3018185636388 70.54314595139665 H 0.0 **** 0.06
30863 H 72.02237895183931 137.86292661687293 69.49131996952387 H 0.0 **** 0.06
30864 H 72.16044755914763 139.24793134065646 70.6021239542578 H 0.0 **** 0.06
30865 H 71.09907719245217 139.35302943726577 69.17703668255984 H 0.0 **** 0.06
30866 C 67.69636460196739 57.158322040498106 11.21644705061729 C 0.0 **** -0.24
30867 H 67.23269418416498 56.53034543640949 10.455093608268243 H 0.0 **** 0.06
30868 H 67.97560243720534 56.54408528711649 12.072952375626187 H 0.0 **** 0.06
30869 H 66.9892672007112 57.92532067225203 11.533493246886138 H 0.0 **** 0.06
30870 H 68.58602686022789 57.633091888205456 10.803102715522215 H 0.0 **** 0.06
30871 C 125.0040157777579 112.94172163567926 118.60411801489086 C 0.0 **** -0.24
30872 H 124.31625056135192 112.28611536236225 118.06950381571396 H 0.0 **** 0.06
30873 H 125.24649897852976 113.80104206102608 117.9782328513863 H 0.0 **** 0.06
30874 H 125.91702562500177 112.39576172902211 118.8404877899802 H 0.0 **** 0.06
30875 H 124.53601423328132 113.28447155680415 119.52633159827185 H 0.0 **** 0.06
30876 C 77.1095194006792 52.51143368510098 114.0863976704783 C 0.0 **** -0.24
30877 H 77.48221022808693 52.883593540774214 115.04083546120106 H 0.0 **** 0.06
30878 H 76.05299416604012 52.75905181396091 113.98881927799877 H 0.0 **** 0.06
30879 H 77.23592321898302 51.4295201245521 114.0453242850489 H 0.0 **** 0.06
30880 H 77.66898734609904 52.97416345040972 113.27316050016853 H 0.0 **** 0.06
30881 C 141.60615574350484 7.098260839872779 3.801864745109725 C 0.0 **** -0.24
30882 H 140.70457087740468 7.605716001619413 3.4592587485996376 H 0.0 **** 0.06
30883 H 142.12615621966887 6.665809330356524 2.946260775391437 H 0.0 **** 0.06
30884 H 141.33432559590503 6.306929626821727 4.499888487515705 H 0.0 **** 0.06
30885 H 142.2590702882461 7.814193606444434 4.30078833990089 H 0.0 **** 0.06
30886 C 1.296914203207706 100.2171686464496 75.79598411027591 C 0.0 **** -0.24
30887 H 1.3667984637187942 101.22579737864214 76.2011817075405 H 0.0 **** 0.06
30888 H 1.9359771745590422 99.54815263837233 76.37197714903522 H 0.0 **** 0.06
30889 H 1.6198138338580748 100.22038844172437 74.75476253366136 H 0.0 **** 0.06
30890 H 0.2637980612517197 99.87279690776812 75.8545937853178 H 0.0 **** 0.06
30891 C 51.56970766075952 98.79553452078552 62.10351212760621 C 0.0 **** -0.24
30892 H 50.513452321562085 98.80639621211827 61.834994773529615 H 0.0 **** 0.06
30893 H 52.173366054433785 98.95680066100697 61.210376263267136 H 0.0 **** 0.06
30894 H 51.8223664290437 97.83133687418787 62.54481060746241 H 0.0 **** 0.06
30895 H 51.769079170631144 99.58871974350538 62.825064732959675 H 0.0 **** 0.06
30896 C 64.52377258881636 31.072791621627772 32.7072580329247 C 0.0 **** -0.24
30897 H 64.41921718959809 31.800745671366343 31.902604706506963 H 0.0 **** 0.06
30898 H 65.03956679881058 31.53484772812442 33.549829361283 H 0.0 **** 0.06
30899 H 65.10073496427418 30.218999849631103 32.35175285803709 H 0.0 **** 0.06
30900 H 63.53641873699142 30.737608522623646 33.02438662518449 H 0.0 **** 0.06
30901 C 77.74429588229685 37.33065357758605 7.489107441075365 C 0.0 **** -0.24
30902 H 77.13421319609202 38.1140294789048 7.936678805779092 H 0.0 **** 0.06
30903 H 77.28959030393796 37.00560867140413 6.553194222345766 H 0.0 **** 0.06
30904 H 77.80880152052612 36.48473899088731 8.174780474464495 H 0.0 **** 0.06
30905 H 78.74452001779522 37.7161174382741 7.293002468031226 H 0.0 **** 0.06
30906 C 30.633380234301782 136.26150023343746 114.21400717890596 C 0.0 **** -0.24
30907 H 29.57475194504105 136.50644550458023 114.12337666061633 H 0.0 **** 0.06
30908 H 30.932523976803623 135.63114263388297 113.37666363580827 H 0.0 **** 0.06
30909 H 30.803274783520806 135.7285452993105 115.1503617298179 H 0.0 **** 0.06
30910 H 31.22039508033417 137.17951084398794 114.20768627054626 H 0.0 **** 0.06
30911 C 42.39347026881822 9.296800512357095 128.51582375585778 C 0.0 **** -0.24
30912 H 42.17807463090901 8.778620804952624 127.58065881596224 H 0.0 **** 0.06
30913 H 41.481282191677536 9.371912911440262 129.10731501826822 H 0.0 **** 0.06
30914 H 42.77044220993723 10.295933235609851 128.29893248500633 H 0.0 **** 0.06
30915 H 43.14502289014207 8.738019384406329 129.0755284123147 H 0.0 **** 0.06
30916 C 12.875643811686615 134.14246622005922 130.4272325681016 C 0.0 **** -0.24
30917 H 12.76664528856682 133.07175499885372 130.60254297848593 H 0.0 **** 0.06
30918 H 13.003731873540488 134.3231334208298 129.36003169600872 H 0.0 **** 0.06
30919 H 13.747628593021318 134.51123346533515 130.96641909539326 H 0.0 **** 0.06
30920 H 11.983977760680574 134.66051819167873 130.78043747869768 H 0.0 **** 0.06
30921 C 93.65616484724652 134.36363298679967 39.57562185148112 C 0.0 **** -0.24
30922 H 94.08359657791189 134.6501389265167 40.53666574801633 H 0.0 **** 0.06
30923 H 94.19162360990688 134.8731628005405 38.77389607389796 H 0.0 **** 0.06
30924 H 92.60429538214143 134.64710356704728 39.5468480168978 H 0.0 **** 0.06
30925 H 93.74619329162502 133.2855012243932 39.44517396240917 H 0.0 **** 0.06
30926 C 7.8792035037733115 117.68259376206777 28.27487793034728 C 0.0 **** -0.24
30927 H 8.67734642301565 117.4181856032422 28.968685621015737 H 0.0 **** 0.06
30928 H 6.926184750135377 117.69327017748151 28.805113941226296 H 0.0 **** 0.06
30929 H 7.839601441500946 116.94810220459573 27.470388818244885 H 0.0 **** 0.06
30930 H 8.074079315612579 118.66988921193365 27.85631371626976 H 0.0 **** 0.06
30931 C 77.32388784081206 96.49035616100198 122.82423965915567 C 0.0 **** -0.24
30932 H 77.89736846366405 97.41483622096078 122.76143469490327 H 0.0 **** 0.06
30933 H 77.48900138274581 95.89870095698643 121.92292972185456 H 0.0 **** 0.06
30934 H 76.26364637134644 96.72642404400435 122.91447752396638 H 0.0 **** 0.06
30935 H 77.64510148559835 95.92143970464545 123.69616437642944 H 0.0 **** 0.06
30936 C 82.09379727103219 99.70778660205163 55.72434741459422 C 0.0 **** -0.24
30937 H 83.08510654943342 99.25672830402407 55.6855118219335 H 0.0 **** 0.06
30938 H 81.7361970314442 99.88683566911241 54.709950335954375 H 0.0 **** 0.06
30939 H 82.14689035732623 100.65437264203833 56.26311724841106 H 0.0 **** 0.06
30940 H 81.40895701348038 99.03466162747091 56.23860165066972 H 0.0 **** 0.06
30941 C 8.907131561110337 21.59455753095807 44.31974291252183 C 0.0 **** -0.24
30942 H 8.797889045184572 20.51126146776032 44.2747364480465 H 0.0 **** 0.06
30943 H 7.921715843922087 22.060801652747443 44.3024164309459 H 0.0 **** 0.06
30944 H 9.48651997917959 21.93697316057731 43.46164236754706 H 0.0 **** 0.06
30945 H 9.423608292084438 21.869771521291256 45.239718441973736 H 0.0 **** 0.06
30946 C 134.8250382068928 132.5113257887629 55.96135522481791 C 0.0 **** -0.24
30947 H 135.27410402893238 133.33777829182557 55.40928720046611 H 0.0 **** 0.06
30948 H 135.35706716785134 131.5882610743505 55.72974641185442 H 0.0 **** 0.06
30949 H 133.77818727745338 132.40953329137682 55.67563804598308 H 0.0 **** 0.06
30950 H 134.89274969688924 132.71071740820008 57.031199637746795 H 0.0 **** 0.06
30951 C 14.239491111560426 0.7778683479194797 109.44915734620243 C 0.0 **** -0.24
30952 H 13.738924413883296 1.593864488595358 109.96890450431151 H 0.0 **** 0.06
30953 H 15.310830105767252 0.9735461398376231 109.41122541804118 H 0.0 **** 0.06
30954 H 13.848596885270524 0.6994081951474982 108.4343432571885 H 0.0 **** 0.06
30955 H 14.058588109274808 -0.15585407457973588 109.98132501077122 H 0.0 **** 0.06
30956 C 100.40847982943481 72.1841058838146 107.84855160262384 C 0.0 **** -0.24
30957 H 100.1191047611096 73.22901221719553 107.7358008666128 H 0.0 **** 0.06
30958 H 100.65105985694373 71.9856890272651 108.89304699514679 H 0.0 **** 0.06
30959 H 101.28057147144352 71.98083087439778 107.22705957890685 H 0.0 **** 0.06
30960 H 99.58296821810423 71.54331137252109 107.53798616780642 H 0.0 **** 0.06
30961 C 104.38879969242619 118.26630321708038 40.2867571460107 C 0.0 **** -0.24
30962 H 103.53272778481673 117.96039571468893 40.88783897861421 H 0.0 **** 0.06
30963 H 104.43070730787208 117.66339054233825 39.37976599628709 H 0.0 **** 0.06
30964 H 105.30498052317539 118.1232080964709 40.86101095315436 H 0.0 **** 0.06
30965 H 104.28790065853163 119.31841070159768 40.02033995096204 H 0.0 **** 0.06
30966 C 51.55857832400271 90.77145084214013 12.023782863325891 C 0.0 **** -0.24
30967 H 52.5615506153881 90.66727142109431 11.608418949192924 H 0.0 **** 0.06
30968 H 51.018146705828784 89.83192763308921 11.907045058539381 H 0.0 **** 0.06
30969 H 51.02805958709031 91.5636822672401 11.496092508443496 H 0.0 **** 0.06
30970 H 51.628078216866456 91.02261197869484 13.082314751312708 H 0.0 **** 0.06
30971 C 132.9926773878116 92.99450705087264 87.67451664518346 C 0.0 **** -0.24
30972 H 133.2222290927952 93.8855322400791 87.08883320616295 H 0.0 **** 0.06
30973 H 133.83765923937824 92.30722485061534 87.63663881087045 H 0.0 **** 0.06
30974 H 132.10814400966527 92.50803192964435 87.26143599292261 H 0.0 **** 0.06
30975 H 132.80108290551905 93.27924288626963 88.70862007973183 H 0.0 **** 0.06
30976 C 111.75692109565917 51.56815203726522 24.240833575029427 C 0.0 **** -0.24
30977 H 112.59703188043066 51.85480170644557 24.872905331416646 H 0.0 **** 0.06
30978 H 111.85854475517105 50.52199071770882 23.952762391086324 H 0.0 **** 0.06
30979 H 111.74645745974361 52.19232599063446 23.347340272509115 H 0.0 **** 0.06
30980 H 110.82564634354553 51.70567869363754 24.79142571559963 H 0.0 **** 0.06
30981 C 49.59349282406917 66.03940002932592 118.62289200180886 C 0.0 **** -0.24
30982 H 48.62032990730221 66.50898936978479 118.76422374061103 H 0.0 **** 0.06
30983 H 50.299709825826284 66.44291066656086 119.34843772961797 H 0.0 **** 0.06
30984 H 49.95258996909567 66.242246376649 117.61428778573749 H 0.0 **** 0.06
30985 H 49.50023599853154 64.96197473724402 118.7653871845409 H 0.0 **** 0.06
30986 C 38.83749627303294 69.7707752732536 26.508179728533776 C 0.0 **** -0.24
30987 H 39.67384528962282 69.16542990087483 26.857835562872708 H 0.0 **** 0.06
30988 H 37.919546981509285 69.18454891237523 26.559722772731902 H 0.0 **** 0.06
30989 H 39.017301104782234 70.07693837987559 25.47817136830224 H 0.0 **** 0.06
30990 H 38.74060361551747 70.65508012775241 27.13873874427736 H 0.0 **** 0.06
30991 C 139.2634724054997 142.93824390516875 0.48567195207519376 C 0.0 **** -0.24
30992 H 138.8453872958705 141.9391396150077 0.36132819150745377 H 0.0 **** 0.06
30993 H 138.48324609118512 143.61889947555613 0.8272284126194052 H 0.0 **** 0.06
30994 H 139.6594911376056 143.2873014863011 -0.46805645403310336 H 0.0 **** 0.06
30995 H 140.06615037895577 142.90638963049102 1.2227359200999501 H 0.0 **** 0.06
30996 C 26.77369582861101 25.4235687010704 50.11074733933327 C 0.0 **** -0.24
30997 H 25.81881095654493 25.49370015843752 50.63058799397439 H 0.0 **** 0.06
30998 H 27.128311154427365 24.393441244195806 50.1391422869369 H 0.0 **** 0.06
30999 H 27.501178653841215 26.07232515188018 50.598473387611875 H 0.0 **** 0.06
31000 H 26.64628474874057 25.73610197364473 49.07424974039546 H 0.0 **** 0.06
31001 C 57.320847926169606 92.40027217993702 142.4811899072063 C 0.0 **** -0.24
31002 H 56.851929957275146 91.70479501482602 143.17686319464045 H 0.0 **** 0.06
31003 H 56.69883185298205 93.29159161331754 142.38346226925788 H 0.0 **** 0.06
31004 H 57.427111509645925 91.92302897303435 141.50693641145617 H 0.0 **** 0.06
31005 H 58.30425867504411 92.68329283732031 142.85660901224097 H 0.0 **** 0.06
31006 C 123.39149991014605 11.643356706269003 138.52429211295825 C 0.0 **** -0.24
31007 H 123.3031453373172 10.83471746121711 137.79913356925417 H 0.0 **** 0.06
31008 H 122.49512491741447 12.263487394948697 138.48807398481068 H 0.0 **** 0.06
31009 H 124.26376753795782 12.251343303582928 138.28600165259644 H 0.0 **** 0.06
31010 H 123.5031250696052 11.223331397932498 139.52397779712743 H 0.0 **** 0.06
31011 C 94.76956440390734 126.0828745122353 119.00365397863162 C 0.0 **** -0.24
31012 H 95.82395002514234 125.94137206471297 119.23835988037145 H 0.0 **** 0.06
31013 H 94.67741836920342 126.65439079466859 118.07883764860019 H 0.0 **** 0.06
31014 H 94.28550005703973 126.62491571463669 119.81544576047393 H 0.0 **** 0.06
31015 H 94.29181533292737 125.11091655876446 118.87900457047895 H 0.0 **** 0.06
31016 C 51.33836618138997 54.916044949005226 36.05391755543934 C 0.0 **** -0.24
31017 H 51.99871241846783 54.078282185834325 35.83005533764509 H 0.0 **** 0.06
31018 H 51.71158228328068 55.44905375048519 36.92984127683853 H 0.0 **** 0.06
31019 H 50.33388902057047 54.543440652667556 36.2556738097247 H 0.0 **** 0.06
31020 H 51.31018189398196 55.59374868169412 35.20113378521617 H 0.0 **** 0.06
31021 C 130.86859936905256 106.04554824727136 114.64089705898819 C 0.0 **** -0.24
31022 H 131.34029585653542 107.0244086202871 114.5500085215756 H 0.0 **** 0.06
31023 H 130.42769757691326 105.94558103800007 115.63337130024361 H 0.0 **** 0.06
31024 H 131.6183999102816 105.26727138173861 114.4960619806928 H 0.0 **** 0.06
31025 H 130.09010510036245 105.94628927489823 113.88580293386694 H 0.0 **** 0.06
31026 C 108.78586843156863 52.7058944604717 13.919904701282888 C 0.0 **** -0.24
31027 H 109.36223914896438 52.09933088261663 14.619165283342795 H 0.0 **** 0.06
31028 H 108.96173707581526 53.76164179618867 14.125451935569743 H 0.0 **** 0.06
31029 H 107.72499639295073 52.48367490865306 14.035938719151773 H 0.0 **** 0.06
31030 H 109.0958430135443 52.47604526864254 12.901031815907288 H 0.0 **** 0.06
31031 C 20.11888071632977 32.96941257765258 75.31029355160672 C 0.0 **** -0.24
31032 H 19.399960997871254 32.38271282716505 74.73824657255545 H 0.0 **** 0.06
31033 H 19.70706204626684 33.185635342736376 76.29668802061934 H 0.0 **** 0.06
31034 H 20.322066915147865 33.90429038280365 74.78782272828772 H 0.0 **** 0.06
31035 H 21.044876457138066 32.40455050861274 75.41902091060376 H 0.0 **** 0.06
31036 C 79.40707562263987 67.3223867494183 90.58544689671379 C 0.0 **** -0.24
31037 H 78.89662400648882 67.80580405077606 89.75260312558362 H 0.0 **** 0.06
31038 H 80.0344210788881 68.05144860155578 91.09984699443322 H 0.0 **** 0.06
31039 H 80.0286765685739 66.51047979744193 90.20835241554468 H 0.0 **** 0.06
31040 H 78.66872680126536 66.92279977944546 91.28107481098104 H 0.0 **** 0.06
31041 C 123.64339119888683 78.06907224827273 85.87376322441916 C 0.0 **** -0.24
31042 H 124.03502879512314 79.03549095972018 86.19363793748147 H 0.0 **** 0.06
31043 H 122.76682947242853 78.22330870027525 85.24545557576812 H 0.0 **** 0.06
31044 H 123.36598793308119 77.48258121519524 86.74864694008535 H 0.0 **** 0.06
31045 H 124.40904988219765 77.5376777932302 85.3068305174173 H 0.0 **** 0.06
31046 C 100.19098485012151 89.57914705814518 83.12687401276847 C 0.0 **** -0.24
31047 H 99.36236453759207 89.36214173724775 83.80123888499112 H 0.0 **** 0.06
31048 H 100.94180202775149 90.16878841409927 83.65301709133094 H 0.0 **** 0.06
31049 H 99.82315147693694 90.14047044038085 82.26799127053053 H 0.0 **** 0.06
31050 H 100.63589390199544 88.6438787594511 82.7871873343426 H 0.0 **** 0.06
31051 C 138.70340477636194 33.23633380362975 19.573651921392326 C 0.0 **** -0.24
31052 H 139.28692109705167 32.33280712417434 19.40064012446642 H 0.0 **** 0.06
31053 H 138.39886350564547 33.27725455355659 20.619912905023128 H 0.0 **** 0.06
31054 H 137.81789826460698 33.22471503704713 18.937629792872812 H 0.0 **** 0.06
31055 H 139.30958491673877 34.111461473609495 19.336177365438914 H 0.0 **** 0.06
31056 C 104.60283775261021 69.61091473056747 10.465589341299136 C 0.0 **** -0.24
31057 H 104.55282116897115 70.6976830613429 10.405524438944951 H 0.0 **** 0.06
31058 H 105.58794525798396 69.27426778400397 10.142111450387716 H 0.0 **** 0.06
31059 H 103.83904658932909 69.17564867545862 9.821455503621308 H 0.0 **** 0.06
31060 H 104.43125205279682 69.29609050989447 11.495698570009495 H 0.0 **** 0.06
31061 C 66.32403492893813 56.186124122944335 46.7215149912459 C 0.0 **** -0.24
31062 H 66.36837402278049 57.01266882024427 47.43211888358178 H 0.0 **** 0.06
31063 H 65.30587404293799 56.083974013395704 46.34687965823859 H 0.0 **** 0.06
31064 H 66.62369655465804 55.26357771135463 47.217698304750655 H 0.0 **** 0.06
31065 H 66.99922695552274 56.387872569260054 45.88937664393407 H 0.0 **** 0.06
31066 C 98.70981563597871 59.33776417282951 121.42459089345031 C 0.0 **** -0.24
31067 H 99.68619779803504 58.87479765868342 121.56240857573276 H 0.0 **** 0.06
31068 H 98.8377146206358 60.39484906976044 121.18907164324612 H 0.0 **** 0.06
31069 H 98.12709137076986 59.237281197230146 122.34032257047305 H 0.0 **** 0.06
31070 H 98.18615721128678 58.84416187446325 120.60466796383709 H 0.0 **** 0.06
31071 C 22.16278837178104 47.71255953959988 83.12366309076504 C 0.0 **** -0.24
31072 H 22.407585773930805 46.72282938419113 82.73829658563011 H 0.0 **** 0.06
31073 H 21.230116567116553 47.66235867084174 83.68662057324593 H 0.0 **** 0.06
31074 H 22.049019722870227 48.40709539786097 82.29209079852762 H 0.0 **** 0.06
31075 H 22.964097229784592 48.05576267836567 83.7773553551691 H 0.0 **** 0.06
31076 C 129.6165004128626 66.97819999498611 78.80648685725848 C 0.0 **** -0.24
31077 H 128.58198261114094 66.92559990660897 79.1426831602852 H 0.0 **** 0.06
31078 H 130.10793332590853 67.83239932349838 79.27318068975379 H 0.0 **** 0.06
31079 H 129.6405643368863 67.09240144505677 77.72221940721744 H 0.0 **** 0.06
31080 H 130.1369475115311 66.06206226009202 79.0869407684581 H 0.0 **** 0.06
31081 C 131.10656821462263 100.86532893189536 125.58878975367033 C 0.0 **** -0.24
31082 H 131.24909756983152 100.80190746500669 126.667249751421 H 0.0 **** 0.06
31083 H 130.60286155257535 99.9657272987595 125.23531501631938 H 0.0 **** 0.06
31084 H 132.07639612294338 100.95611943375303 125.09859708448225 H 0.0 **** 0.06
31085 H 130.49876759969794 101.739066836637 125.35388896812583 H 0.0 **** 0.06
31086 C 106.83530412808052 7.114048961171822 96.48385419172105 C 0.0 **** -0.24
31087 H 106.26708397392157 6.374261292918742 97.04937876294562 H 0.0 **** 0.06
31088 H 106.14640418092021 7.791566880192914 95.9776750691401 H 0.0 **** 0.06
31089 H 107.45558812888326 6.607915034106593 95.74477566983043 H 0.0 **** 0.06
31090 H 107.46993277382943 7.681459035590521 97.16396164558687 H 0.0 **** 0.06
31091 C 138.92411283102066 36.2854429230874 35.45019488264674 C 0.0 **** -0.24
31092 H 139.26784568365898 35.284935148105546 35.18520833448062 H 0.0 **** 0.06
31093 H 138.66584290939204 36.31259427145119 36.50884607723603 H 0.0 **** 0.06
31094 H 138.04661489069403 36.537356115534436 34.85459601686438 H 0.0 **** 0.06
31095 H 139.71698370993556 37.005880806205624 35.25005766449297 H 0.0 **** 0.06
31096 C 134.24442110472364 94.04174879285543 83.9016185336788 C 0.0 **** -0.24
31097 H 133.32528652727697 94.51122184905506 83.55147061922156 H 0.0 **** 0.06
31098 H 134.63545309186114 94.59901973513469 84.75337848546093 H 0.0 **** 0.06
31099 H 134.981082728892 94.0417013938741 83.09726375277648 H 0.0 **** 0.06
31100 H 134.03660594541654 93.01507217066813 84.20225261180893 H 0.0 **** 0.06
31101 C 101.57804085227282 74.88467060264335 133.02873146590306 C 0.0 **** -0.24
31102 H 102.62450949498849 75.18358634696025 132.9779810286365 H 0.0 **** 0.06
31103 H 101.2234273222773 74.6324689281411 132.02892323720474 H 0.0 **** 0.06
31104 H 100.98359935064013 75.70631898927817 133.4277541571233 H 0.0 **** 0.06
31105 H 101.4800024522791 74.01521982697594 133.67961529996748 H 0.0 **** 0.06
31106 C 145.4213384611971 79.22525917457708 84.79908873742203 C 0.0 **** -0.24
31107 H 144.54169988351347 78.94092570654854 84.22110571604587 H 0.0 **** 0.06
31108 H 145.35250535434878 80.27908114405099 85.06829152537131 H 0.0 **** 0.06
31109 H 146.31734614769474 79.06144364672534 84.19984202378436 H 0.0 **** 0.06
31110 H 145.472218614514 78.62007492556202 85.7037611061606 H 0.0 **** 0.06
31111 C 42.795012993064745 125.7859242501124 23.785668121135735 C 0.0 **** -0.24
31112 H 43.24398146126889 125.46765730679451 24.726538656246987 H 0.0 **** 0.06
31113 H 43.559456646371004 126.24011279233841 23.154519481671755 H 0.0 **** 0.06
31114 H 42.009785759641304 126.51455414696548 23.98733012510764 H 0.0 **** 0.06
31115 H 42.36784998785143 124.92276224583915 23.276738903152612 H 0.0 **** 0.06
31116 C 14.405284193488512 10.25086662148108 32.674677251615975 C 0.0 **** -0.24
31117 H 15.103021112238821 10.907666985735737 33.19503329231878 H 0.0 **** 0.06
31118 H 13.559765610986517 10.835449406325552 32.310624731373906 H 0.0 **** 0.06
31119 H 14.04836556448845 9.484047250277278 33.362224371153246 H 0.0 **** 0.06
31120 H 14.910088523551622 9.778206266227066 31.83291623070832 H 0.0 **** 0.06
31121 C 136.29342711733935 62.79355612826697 98.71925953885638 C 0.0 **** -0.24
31122 H 135.42913162824897 63.36769127661171 98.3853103841783 H 0.0 **** 0.06
31123 H 136.1182963752614 61.733237163874946 98.53423018833685 H 0.0 **** 0.06
31124 H 136.44727665382217 62.95644580018734 99.78663914914694 H 0.0 **** 0.06
31125 H 137.17794402684078 63.1176997415584 98.17125257189369 H 0.0 **** 0.06
31126 C 123.46070223859857 84.91873849627365 33.88827489947323 C 0.0 **** -0.24
31127 H 123.51799310810588 85.94001354088796 33.512310917847174 H 0.0 **** 0.06
31128 H 124.25933706104288 84.32311896066689 33.444624426072835 H 0.0 **** 0.06
31129 H 122.49548005351652 84.48724082701403 33.62263264999643 H 0.0 **** 0.06
31130 H 123.57093017744509 84.92387876549478 34.97225102250496 H 0.0 **** 0.06
31131 C 31.225914968611335 79.57308142864122 70.70418671211348 C 0.0 **** -0.24
31132 H 31.197778638160663 80.58912714736525 70.3094508787724 H 0.0 **** 0.06
31133 H 30.338350444538023 79.03171022614185 70.37631731123037 H 0.0 **** 0.06
31134 H 31.249896214816445 79.60750006462365 71.79352649733482 H 0.0 **** 0.06
31135 H 32.11845884004254 79.06651061857572 70.33647301357956 H 0.0 **** 0.06
31136 C 123.48505996446809 11.90775199795808 17.652274802735718 C 0.0 **** -0.24
31137 H 123.73543432580058 11.614110464863224 18.671838061984936 H 0.0 **** 0.06
31138 H 123.18539332755573 12.956540995471975 17.640128996006503 H 0.0 **** 0.06
31139 H 122.66292152784224 11.290804565640713 17.2882882736304 H 0.0 **** 0.06
31140 H 124.35434176731067 11.770446690654161 17.009606714936382 H 0.0 **** 0.06
31141 C 99.95002917591272 120.64535830149924 15.23593972682599 C 0.0 **** -0.24
31142 H 99.19106145085078 120.55452110290008 16.013827603362245 H 0.0 **** 0.06
31143 H 99.83392445224452 119.8323963500705 14.519064937484814 H 0.0 **** 0.06
31144 H 100.9408204571998 120.59137453444197 15.688500598551684 H 0.0 **** 0.06
31145 H 99.83500882949826 121.60041032424658 14.72482644764284 H 0.0 **** 0.06
31146 C 18.082510890267542 51.05277669576628 81.05144907483131 C 0.0 **** -0.24
31147 H 17.507828739170208 51.88415791480534 80.6421476838202 H 0.0 **** 0.06
31148 H 17.45065182288809 50.47039841341487 81.72216030829632 H 0.0 **** 0.06
31149 H 18.938758976290472 51.44038729750295 81.6029960913084 H 0.0 **** 0.06
31150 H 18.431832040781813 50.41756033375614 80.23744182363738 H 0.0 **** 0.06
31151 C 120.6944975482442 97.88735341374681 124.07628971624231 C 0.0 **** -0.24
31152 H 121.13759134114538 98.87676458401063 124.19015072312598 H 0.0 **** 0.06
31153 H 121.4179647641284 97.12921221157887 124.37775620457197 H 0.0 **** 0.06
31154 H 120.41811994160973 97.73183802557026 123.03326896154906 H 0.0 **** 0.06
31155 H 119.80672303289087 97.81342639429994 124.70305684185709 H 0.0 **** 0.06
31156 C 47.41079480696125 61.619965969704964 141.03059878744116 C 0.0 **** -0.24
31157 H 47.815200811811565 60.611775832167694 140.9455676885612 H 0.0 **** 0.06
31158 H 47.115154683229775 61.97700404373941 140.04321147636554 H 0.0 **** 0.06
31159 H 48.17029055599944 62.28320903847114 141.44505717227463 H 0.0 **** 0.06
31160 H 46.54110558000801 61.60799928162794 141.68716357518062 H 0.0 **** 0.06
31161 C 123.366136393463 88.00021508835215 115.38147045904437 C 0.0 **** -0.24
31162 H 122.86600968226497 87.30932149012868 116.0594359162959 H 0.0 **** 0.06
31163 H 124.44592091188008 87.87798390678 115.46952073683003 H 0.0 **** 0.06
31164 H 123.09311057645945 89.02342767510896 115.63896179706565 H 0.0 **** 0.06
31165 H 123.05928478076213 87.78922110521306 114.35690004311407 H 0.0 **** 0.06
31166 C 69.099117694337 89.92416622108898 78.42759096929933 C 0.0 **** -0.24
31167 H 70.17908756266698 89.93852102193246 78.28347683050765 H 0.0 **** 0.06
31168 H 68.76995946116536 90.89494785498664 78.7997519883113 H 0.0 **** 0.06
31169 H 68.84034735398822 89.15003460147729 79.15071619271714 H 0.0 **** 0.06
31170 H 68.60813868213086 89.71308653685004 77.47734947710043 H 0.0 **** 0.06
31171 C 82.33508646206533 100.84504727854141 138.3567972990809 C 0.0 **** -0.24
31172 H 82.13403274221383 101.79888106370949 137.8692735564503 H 0.0 **** 0.06
31173 H 81.78965826008962 100.79702713759721 139.2992876376294 H 0.0 **** 0.06
31174 H 83.40370902521963 100.75432008787709 138.54963728184052 H 0.0 **** 0.06
31175 H 82.01289217187667 100.03106701711107 137.7068058353116 H 0.0 **** 0.06
31176 C 77.39396660681436 110.96635574318137 8.160475748400131 C 0.0 **** -0.24
31177 H 77.10891409503344 110.16632409418699 7.47703494231348 H 0.0 **** 0.06
31178 H 78.03706802904712 111.67600438653156 7.640151568605063 H 0.0 **** 0.06
31179 H 77.9283452298799 110.54499960900407 9.011378415954823 H 0.0 **** 0.06
31180 H 76.49777859358635 111.47920037673427 8.512058450162442 H 0.0 **** 0.06
31181 C 128.1428369455681 56.356136263303114 65.7520952512362 C 0.0 **** -0.24
31182 H 128.49588727977613 55.83000248814757 64.86532155032094 H 0.0 **** 0.06
31183 H 127.6965198463871 55.64189941705175 66.44406322236446 H 0.0 **** 0.06
31184 H 127.39777655599933 57.09701261503156 65.46257991147849 H 0.0 **** 0.06
31185 H 128.98323705542916 56.855277236508584 66.23565588915616 H 0.0 **** 0.06
31186 C 125.45195966428025 70.76903872028957 26.83108157243163 C 0.0 **** -0.24
31187 H 124.5364620780008 70.17653323892365 26.851462605731797 H 0.0 **** 0.06
31188 H 126.0837767634772 70.43271346017688 26.008707940198974 H 0.0 **** 0.06
31189 H 125.98460240563907 70.64702511828966 27.773679176410553 H 0.0 **** 0.06
31190 H 125.19970517357586 71.82086469200853 26.68938196555439 H 0.0 **** 0.06
31191 C 10.31850241557622 114.575251528366 134.04253089526068 C 0.0 **** -0.24
31192 H 11.222989662811209 114.69899704743624 133.44624002617942 H 0.0 **** 0.06
31193 H 9.94490144712752 113.55778486103468 133.9285932791382 H 0.0 **** 0.06
31194 H 9.560995263314425 115.28166878115634 133.70211423454472 H 0.0 **** 0.06
31195 H 10.54729678343677 114.76421799539621 135.09130193913663 H 0.0 **** 0.06
31196 C 44.33800574018433 58.375126498148035 103.7797110168367 C 0.0 **** -0.24
31197 H 43.851119865102305 58.99575410000675 104.53164279605062 H 0.0 **** 0.06
31198 H 44.27980658871492 58.867971986060155 102.80848439852193 H 0.0 **** 0.06
31199 H 43.83839344769872 57.40812913090758 103.72824731813726 H 0.0 **** 0.06
31200 H 45.38436235596343 58.22898492596546 104.05083726228254 H 0.0 **** 0.06
31201 C 99.94331993585975 131.3151443187138 22.339915619045115 C 0.0 **** -0.24
31202 H 99.65481410419815 130.74436637225045 23.22298404746016 H 0.0 **** 0.06
31203 H 99.17835590980498 132.06166588552054 22.124600693598268 H 0.0 **** 0.06
31204 H 100.04492342189923 130.64098231354464 21.489593204601306 H 0.0 **** 0.06
31205 H 100.89503647553155 131.81278370951105 22.525545764829786 H 0.0 **** 0.06
31206 C 41.45510846002756 111.29505889681037 4.786729228283917 C 0.0 **** -0.24
31207 H 40.59506360882463 111.5702738128059 5.397427608971412 H 0.0 **** 0.06
31208 H 41.90765537380523 112.1949327770675 4.369814129678161 H 0.0 **** 0.06
31209 H 41.1325892617818 110.64140612834827 3.97647599141078 H 0.0 **** 0.06
31210 H 42.18679477423461 110.77290289513458 5.404841054785237 H 0.0 **** 0.06
31211 C 3.236166558062422 49.44247228292967 63.98211589604979 C 0.0 **** -0.24
31212 H 3.306555692955186 48.44077529230782 64.4075268250804 H 0.0 **** 0.06
31213 H 2.2763918541138537 49.88458646039906 64.25079693296101 H 0.0 **** 0.06
31214 H 3.318223259466947 49.38309105718602 62.897357206595586 H 0.0 **** 0.06
31215 H 4.043759859397483 50.060789604245485 64.37490677812681 H 0.0 **** 0.06
31216 C 104.54445130830561 128.05978347561182 125.4014919436464 C 0.0 **** -0.24
31217 H 105.11220737200614 128.98424286273513 125.29673611669968 H 0.0 **** 0.06
31218 H 105.2282309728945 127.23488388577425 125.60720054994928 H 0.0 **** 0.06
31219 H 104.00141098976468 127.86008528607616 124.4775911083689 H 0.0 **** 0.06
31220 H 103.83768478393301 128.15850797353545 126.22454989316141 H 0.0 **** 0.06
31221 C 129.10443009252654 53.22416398970503 132.89108908701712 C 0.0 **** -0.24
31222 H 129.084119809055 52.20147283282199 132.51528040968256 H 0.0 **** 0.06
31223 H 130.00677926053694 53.37599540227282 133.48279092645987 H 0.0 **** 0.06
31224 H 128.22734984973164 53.400349980220426 133.5143536135449 H 0.0 **** 0.06
31225 H 129.09864481343763 53.918891079977556 132.05078513781532 H 0.0 **** 0.06
31226 C 25.559163869649467 59.03767576170368 62.08739793001405 C 0.0 **** -0.24
31227 H 25.537010109256187 58.73667467435253 63.134659808299176 H 0.0 **** 0.06
31228 H 26.024060634785144 60.01942239499502 62.000879646876456 H 0.0 **** 0.06
31229 H 24.540302192466925 59.082164857511685 61.70102692482821 H 0.0 **** 0.06
31230 H 26.133529567433186 58.31111114130533 61.51342340418506 H 0.0 **** 0.06
31231 C 61.03484228544377 116.28325473636967 142.73747220406855 C 0.0 **** -0.24
31232 H 61.055562103961634 117.00129935152019 143.55707668284563 H 0.0 **** 0.06
31233 H 61.782321020021726 116.55956962596169 141.9939753923315 H 0.0 **** 0.06
31234 H 60.04591837550642 116.28505627515706 142.277885216746 H 0.0 **** 0.06
31235 H 61.25467019104316 115.2867959464359 143.1224027512093 H 0.0 **** 0.06
31236 C 35.07771011824097 122.91715886008575 130.33462164145823 C 0.0 **** -0.24
31237 H 34.013508516898355 123.03929215759558 130.53647383840465 H 0.0 **** 0.06
31238 H 35.58638774129942 123.87176768232689 130.4733552713851 H 0.0 **** 0.06
31239 H 35.2152922041152 122.57752333548757 129.30778923005033 H 0.0 **** 0.06
31240 H 35.494759911668766 122.17917583074342 131.0202078398322 H 0.0 **** 0.06
31241 C 126.41116021586762 64.61991479141696 58.32253847136124 C 0.0 **** -0.24
31242 H 126.43039103206839 65.15923330876981 57.375330139667994 H 0.0 **** 0.06
31243 H 126.73365764103592 65.28447715684885 59.1245298689239 H 0.0 **** 0.06
31244 H 127.08360412854383 63.76383308502662 58.266527787463104 H 0.0 **** 0.06
31245 H 125.39693347308466 64.27430797585586 58.52332929143245 H 0.0 **** 0.06
31246 C 122.32256750759684 69.21211405417061 123.89367396612533 C 0.0 **** -0.24
31247 H 122.23839420718626 69.31300687604192 124.97511066432418 H 0.0 **** 0.06
31248 H 121.77433399169458 68.3284862838157 123.56734305907872 H 0.0 **** 0.06
31249 H 123.37354382125316 69.11039510302068 123.61908329724037 H 0.0 **** 0.06
31250 H 121.90610420068693 70.09736813086575 123.41219762555858 H 0.0 **** 0.06
31251 C 38.90561455185787 78.51800187384868 10.68889085837344 C 0.0 **** -0.24
31252 H 39.514664137008396 78.96695339101312 9.904662569711348 H 0.0 **** 0.06
31253 H 39.54823638167792 78.19756219086344 11.509815065314612 H 0.0 **** 0.06
31254 H 38.37396152249563 77.65597178060872 10.286050855369325 H 0.0 **** 0.06
31255 H 38.18563347202406 79.25021415926349 11.05449352968921 H 0.0 **** 0.06
31256 C 100.10030961873392 84.60004076777484 33.580345522885395 C 0.0 **** -0.24
31257 H 99.58035088687991 85.55863293801784 33.579388875599236 H 0.0 **** 0.06
31258 H 99.58072142621343 83.90527957453588 32.92079198271014 H 0.0 **** 0.06
31259 H 100.11775788850733 84.1983764734129 34.59287018629469 H 0.0 **** 0.06
31260 H 101.12194826382814 84.74192944255469 33.22774520563911 H 0.0 **** 0.06
31261 C 70.44044665480172 72.6941852014545 35.717933731299524 C 0.0 **** -0.24
31262 H 71.3408969646448 72.60942056054012 35.109301571581966 H 0.0 **** 0.06
31263 H 70.70779012162231 72.62939163668574 36.77264466820026 H 0.0 **** 0.06
31264 H 69.75367715791722 71.88598234604598 35.465613068481616 H 0.0 **** 0.06
31265 H 69.95999291308345 73.65348127639447 35.52361139193289 H 0.0 **** 0.06
31266 C 6.194231208144544 117.42095977643753 1.5229803507493216 C 0.0 **** -0.24
31267 H 6.783043532047316 117.5986092175901 2.422955141826094 H 0.0 **** 0.06
31268 H 5.490008796607668 118.2401955245529 1.3820817018452374 H 0.0 **** 0.06
31269 H 5.646868301711123 116.48399345705182 1.625829078872357 H 0.0 **** 0.06
31270 H 6.858715298260023 117.36009188468854 0.6606411345359504 H 0.0 **** 0.06
31271 C 122.08198425925981 91.68243901211389 14.944247900548476 C 0.0 **** -0.24
31272 H 122.46304039980161 92.67206750883 14.69252474852604 H 0.0 **** 0.06
31273 H 122.86368370480061 90.93951450457809 14.783505618916223 H 0.0 **** 0.06
31274 H 121.2252531100389 91.4510310760692 14.310797009084581 H 0.0 **** 0.06
31275 H 121.77496432140263 91.66706195608424 15.99011462747282 H 0.0 **** 0.06
31276 C 19.68703467434426 141.15629003840357 20.31404863617422 C 0.0 **** -0.24
31277 H 19.424028249624577 140.19433767200223 19.87396095615685 H 0.0 **** 0.06
31278 H 18.833108474658445 141.83087012998692 20.24583810300541 H 0.0 **** 0.06
31279 H 20.53233740358563 141.5834358229813 19.774897773833686 H 0.0 **** 0.06
31280 H 19.95629976333195 141.01587854009196 21.36146730697763 H 0.0 **** 0.06
31281 C 94.46760324520099 134.77547877245854 68.24261620224767 C 0.0 **** -0.24
31282 H 95.34045238738454 134.87307894575125 68.88871179069405 H 0.0 **** 0.06
31283 H 94.74402450401513 134.23091810029163 67.33969546175824 H 0.0 **** 0.06
31284 H 94.10304200798916 135.76723235284067 67.97271086676338 H 0.0 **** 0.06
31285 H 93.68453771344224 134.2318821268028 68.77027794345697 H 0.0 **** 0.06
31286 C 100.66731870468752 11.42061372412735 49.50963206174228 C 0.0 **** -0.24
31287 H 101.11923479249327 11.92056781290924 50.367146327939196 H 0.0 **** 0.06
31288 H 101.35060494644252 11.465571963440738 48.66103344926809 H 0.0 **** 0.06
31289 H 99.73213732192427 11.917947721112483 49.25076412470973 H 0.0 **** 0.06
31290 H 100.46816976564138 10.379269402558208 49.760778549051935 H 0.0 **** 0.06
31291 C 49.042477346485256 116.88463150543511 92.64530942312504 C 0.0 **** -0.24
31292 H 48.591173217872154 115.90660516201284 92.81540644540706 H 0.0 **** 0.06
31293 H 50.08231317668178 116.75696073275044 92.34373765056417 H 0.0 **** 0.06
31294 H 48.998656459374914 117.46902486065746 93.56404551518636 H 0.0 **** 0.06
31295 H 48.496376621192496 117.4044323729553 91.85714826032779 H 0.0 **** 0.06
31296 C 0.9068601303366748 139.7818795708982 8.09586798352376 C 0.0 **** -0.24
31297 H 1.2067092190360142 138.79212911414058 7.751812109432876 H 0.0 **** 0.06
31298 H 0.78311607835807 140.44302803654531 7.237771228420911 H 0.0 **** 0.06
31299 H 1.6732440246061593 140.18360712760264 8.757384813212752 H 0.0 **** 0.06
31300 H -0.03721812278789827 139.7081268357513 8.636219451266243 H 0.0 **** 0.06
31301 C 51.11372108729998 82.593442508714 78.75739486916478 C 0.0 **** -0.24
31302 H 50.14563159635142 82.76488404962909 78.28605692222078 H 0.0 **** 0.06
31303 H 50.9757920257633 82.01157168798669 79.66868396485668 H 0.0 **** 0.06
31304 H 51.57206865271618 83.55091483759713 79.0023174880356 H 0.0 **** 0.06
31305 H 51.75950758200091 82.04672384540324 78.07000239171498 H 0.0 **** 0.06
31306 C 139.16988604506304 86.64270565689273 76.98365204847696 C 0.0 **** -0.24
31307 H 139.47531888187692 85.60332967602582 77.10466962939904 H 0.0 **** 0.06
31308 H 138.37638968784452 86.87359759591376 77.69421051093974 H 0.0 **** 0.06
31309 H 138.80629700200043 86.79867250985578 75.96841059581519 H 0.0 **** 0.06
31310 H 140.02365330735418 87.29590155347012 77.16705741322073 H 0.0 **** 0.06
31311 C 20.445047668829403 26.039286831942142 119.34304349097167 C 0.0 **** -0.24
31312 H 21.3569366285966 26.636494805749635 119.35653681028256 H 0.0 **** 0.06
31313 H 20.46876019083885 25.359687419261917 118.4920087156631 H 0.0 **** 0.06
31314 H 19.580590969639672 26.69860107461799 119.25926234595497 H 0.0 **** 0.06
31315 H 20.374819185343114 25.464426352447703 120.26658141390979 H 0.0 **** 0.06
31316 C 76.3422553178757 81.00550510155178 123.6387042130059 C 0.0 **** -0.24
31317 H 76.56213253645964 81.97069238289843 124.09629406246268 H 0.0 **** 0.06
31318 H 76.65442412387803 81.0209869353128 122.59327035291686 H 0.0 **** 0.06
31319 H 75.27104842742774 80.81285241635624 123.69482570378568 H 0.0 **** 0.06
31320 H 76.88160143882429 80.220571811689 124.1673508983463 H 0.0 **** 0.06
31321 C 104.69157294344916 24.918914249409113 3.76612126648115 C 0.0 **** -0.24
31322 H 103.67662749797353 25.16106628414579 3.452583412975457 H 0.0 **** 0.06
31323 H 104.65590081865341 24.23707302341566 4.616169481162103 H 0.0 **** 0.06
31324 H 105.21122583454756 25.833074040719083 4.0536515400004305 H 0.0 **** 0.06
31325 H 105.22302492629377 24.443261919128958 2.941475539920532 H 0.0 **** 0.06
31326 C 114.70967496368802 24.780867921881764 93.26066811216486 C 0.0 **** -0.24
31327 H 114.21441908534977 24.908556142318133 92.29871999588727 H 0.0 **** 0.06
31328 H 115.76184126313252 24.544547439643566 93.09888848782822 H 0.0 **** 0.06
31329 H 114.23454496849571 23.96830829515156 93.8094086647917 H 0.0 **** 0.06
31330 H 114.62861286927479 25.70417030175227 93.83582863386357 H 0.0 **** 0.06
31331 C 4.784029737755127 2.9455004160084 73.9721790098852 C 0.0 **** -0.24
31332 H 5.646502193047976 2.7942392460444125 73.32244425375639 H 0.0 **** 0.06
31333 H 4.516219769948982 2.0002919791753584 74.44517030122695 H 0.0 **** 0.06
31334 H 3.9429065311221443 3.3082454689194094 73.3814602352408 H 0.0 **** 0.06
31335 H 5.032699835589565 3.6783030008727167 74.7401597867087 H 0.0 **** 0.06
31336 C 45.177815150682136 108.78066073183658 69.89501089769632 C 0.0 **** -0.24
31337 H 44.518841335364954 108.86887579548556 69.03096892458537 H 0.0 **** 0.06
31338 H 44.660771105795035 108.24738780269666 70.69266203007248 H 0.0 **** 0.06
31339 H 45.45453823146278 109.77655587858578 70.24322657324774 H 0.0 **** 0.06
31340 H 46.075726603778676 108.23216982860748 69.6119285607701 H 0.0 **** 0.06
31341 C 131.87884704206928 28.44326418714755 47.659583068699845 C 0.0 **** -0.24
31342 H 131.30495370412214 29.267770943501546 47.2371603892373 H 0.0 **** 0.06
31343 H 132.82283837749011 28.345218628089903 47.12285934636991 H 0.0 **** 0.06
31344 H 131.3088287111128 27.518409858803842 47.56607098250166 H 0.0 **** 0.06
31345 H 132.07795773636403 28.64195321654296 48.713362723902506 H 0.0 **** 0.06
31346 C 69.21953592050026 60.21946512426939 102.14202339449012 C 0.0 **** -0.24
31347 H 69.04436764679816 60.384337920433424 101.07829223029351 H 0.0 **** 0.06
31348 H 70.25211095014043 60.470349297627735 102.38312461886252 H 0.0 **** 0.06
31349 H 69.03384185146582 59.17301430039575 102.3818383992768 H 0.0 **** 0.06
31350 H 68.5463879281509 60.85027433019552 102.72240379841342 H 0.0 **** 0.06
31351 C 112.40039371392027 37.596156489891186 25.046091607293754 C 0.0 **** -0.24
31352 H 112.81556145375106 36.62946047655426 25.33122923184137 H 0.0 **** 0.06
31353 H 111.62904828640364 37.88475066148646 25.76171555280868 H 0.0 **** 0.06
31354 H 111.96380103380324 37.52462516358125 24.04994051683321 H 0.0 **** 0.06
31355 H 113.19225633858792 38.344235846492985 25.043143034570015 H 0.0 **** 0.06
31356 C 41.84575161262259 110.0706965102816 34.67575869901799 C 0.0 **** -0.24
31357 H 41.46238244923504 111.08228095029938 34.54426391483412 H 0.0 **** 0.06
31358 H 42.50466578221261 109.82122549683902 33.843618530462436 H 0.0 **** 0.06
31359 H 41.01271838930674 109.36844477038613 34.70272213989779 H 0.0 **** 0.06
31360 H 42.40221897686337 110.01235499890032 35.61080319257201 H 0.0 **** 0.06
31361 C 97.7605662260744 7.011673261978057 59.30882033422783 C 0.0 **** -0.24
31362 H 96.71822810335266 6.7054048679130105 59.21786526652096 H 0.0 **** 0.06
31363 H 98.19116679877888 6.569262394588112 60.20814716446674 H 0.0 **** 0.06
31364 H 97.81598804548041 8.098456369524861 59.375399740423845 H 0.0 **** 0.06
31365 H 98.31635935902874 6.672026256863713 58.43540075628428 H 0.0 **** 0.06
31366 C 140.01446390978117 113.8947481802346 114.32243199672307 C 0.0 **** -0.24
31367 H 139.45364310898879 114.36452395501713 115.13093844798838 H 0.0 **** 0.06
31368 H 140.27412546918322 114.64689089586061 113.57693877657165 H 0.0 **** 0.06
31369 H 139.40353498110903 113.11942234689984 113.85950476992114 H 0.0 **** 0.06
31370 H 140.9249823590835 113.44968650579652 114.72278449818494 H 0.0 **** 0.06
31371 C 119.17383005344978 144.0772555651325 96.31819550787745 C 0.0 **** -0.24
31372 H 120.22399663426005 144.12482047383466 96.02709465790267 H 0.0 **** 0.06
31373 H 118.8948235208593 143.03933003839674 96.50223868654484 H 0.0 **** 0.06
31374 H 118.5560962919438 144.48270603643576 95.51616816356601 H 0.0 **** 0.06
31375 H 119.02268251835947 144.66193141701044 97.22488200781721 H 0.0 **** 0.06
31376 C 28.13408992016008 132.98168561435628 17.218024373833657 C 0.0 **** -0.24
31377 H 28.750327998119587 132.62783352831084 16.391332024125802 H 0.0 **** 0.06
31378 H 27.105711858086693 132.64950953056373 17.07309838469837 H 0.0 **** 0.06
31379 H 28.1633533587966 134.07044352289543 17.2519320940753 H 0.0 **** 0.06
31380 H 28.517542706794586 132.5784289415092 18.155110228306114 H 0.0 **** 0.06
31381 C 138.23093953499165 108.4580317025805 61.992424860243915 C 0.0 **** -0.24
31382 H 137.76499427163463 107.52357283231474 62.30405043419806 H 0.0 **** 0.06
31383 H 137.97233122630632 108.66490766025028 60.954019847225766 H 0.0 **** 0.06
31384 H 139.31351135702923 108.37371593103539 62.08751427964924 H 0.0 **** 0.06
31385 H 137.8735906945438 109.27086069224946 62.6249434388001 H 0.0 **** 0.06
31386 C 18.115914712090245 14.14730895726359 128.44147073708044 C 0.0 **** -0.24
31387 H 18.110483781962216 15.236189523240341 128.49391622542075 H 0.0 **** 0.06
31388 H 17.666822439548014 13.827196281373858 127.50105066005344 H 0.0 **** 0.06
31389 H 17.54170422607737 13.741940982883534 129.27459438996036 H 0.0 **** 0.06
31390 H 19.14256683271782 13.786328500719037 128.49722376617066 H 0.0 **** 0.06
31391 C 1.448612974557527 64.21851660461789 72.51340152218154 C 0.0 **** -0.24
31392 H 1.2552940868395481 63.44092511845042 73.25250516384887 H 0.0 **** 0.06
31393 H 1.9103338345635805 65.07712810817685 73.00172012994466 H 0.0 **** 0.06
31394 H 0.5084693489448533 64.52418884496478 72.05367076903116 H 0.0 **** 0.06
31395 H 2.1198427861914304 63.832137223852044 71.7465101319981 H 0.0 **** 0.06
31396 C 68.31658793892481 0.12998659141129565 135.82588079979746 C 0.0 **** -0.24
31397 H 69.13697794402114 -0.4881301393568265 135.4593007898776 H 0.0 **** 0.06
31398 H 68.18390253780066 0.9857389654386566 135.16400516911474 H 0.0 **** 0.06
31399 H 68.54800996082133 0.4807517818790643 136.83175879320194 H 0.0 **** 0.06
31400 H 67.40043836061372 -0.45856986192308113 135.8487951419835 H 0.0 **** 0.06
31401 C 97.46962666816052 126.51054132696605 3.452268690038238 C 0.0 **** -0.24
31402 H 96.94642088336285 126.19983089137162 4.356355305897296 H 0.0 **** 0.06
31403 H 98.05447229718978 125.67594575548492 3.0659492534352353 H 0.0 **** 0.06
31404 H 98.13363871439708 127.34406027264693 3.6853677011886816 H 0.0 **** 0.06
31405 H 96.74362860802844 126.82449003720322 2.7025014550163746 H 0.0 **** 0.06
31406 C 64.39999366541531 136.28403378461874 43.87103775994885 C 0.0 **** -0.24
31407 H 65.20850812115502 136.6068843945496 44.52724639596059 H 0.0 **** 0.06
31408 H 63.48609232053349 136.16344315558072 44.453353963646904 H 0.0 **** 0.06
31409 H 64.66534036413475 135.3329638554214 43.40923583258761 H 0.0 **** 0.06
31410 H 64.24060746363827 137.03211357409828 43.09538158540599 H 0.0 **** 0.06
31411 C 6.2382812081905 68.99461970057743 95.65965284255475 C 0.0 **** -0.24
31412 H 6.871217167665293 69.66302180617265 95.07463604032532 H 0.0 **** 0.06
31413 H 5.912176708535384 68.16375962521977 95.0332748998774 H 0.0 **** 0.06
31414 H 5.368197472764848 69.54204467021572 96.02066814209522 H 0.0 **** 0.06
31415 H 6.804152933385382 68.60964075658057 96.5079978785005 H 0.0 **** 0.06
31416 C 58.85110876520507 78.15122441559777 90.997959595877 C 0.0 **** -0.24
31417 H 58.184621987662666 78.40877202030089 90.17486391518003 H 0.0 **** 0.06
31418 H 59.84135208317478 77.92194640695561 90.60439681847993 H 0.0 **** 0.06
31419 H 58.45872976570037 77.28067264280692 91.52395697724802 H 0.0 **** 0.06
31420 H 58.919379189076736 78.99283924856084 91.68706155279818 H 0.0 **** 0.06
31421 C 66.64931867802574 132.6891513835795 2.559762640506989 C 0.0 **** -0.24
31422 H 67.4373882625801 133.44067305615144 2.5023740793530465 H 0.0 **** 0.06
31423 H 65.89078812205304 133.01088036443934 3.273333066704396 H 0.0 **** 0.06
31424 H 67.0765194373659 131.74016324268615 2.8853681680614898 H 0.0 **** 0.06
31425 H 66.194600457637 132.56482262671668 1.5770217832746312 H 0.0 **** 0.06
31426 C 107.87253328049746 21.394558935152304 1.1213663561154306 C 0.0 **** -0.24
31427 H 108.65949158920029 21.627143498042415 0.40318184966145054 H 0.0 **** 0.06
31428 H 108.31754989928737 21.211980574688596 2.100170374186149 H 0.0 **** 0.06
31429 H 107.33440243373798 20.505105599485205 0.7946113642439911 H 0.0 **** 0.06
31430 H 107.18092046484719 22.2348716769431 1.1869798784597378 H 0.0 **** 0.06
31431 C 31.561168312025245 141.72277679420486 36.9406590314926 C 0.0 **** -0.24
31432 H 31.210248270823115 142.72176628698296 36.681838601685 H 0.0 **** 0.06
31433 H 32.40073049323718 141.45553490774054 36.29911479769598 H 0.0 **** 0.06
31434 H 30.751356377789364 141.0057273527959 36.79785593538634 H 0.0 **** 0.06
31435 H 31.879204933063136 141.70759361980183 37.982852895900834 H 0.0 **** 0.06
31436 C 13.759346347319642 75.20536113027187 143.8903956657579 C 0.0 **** -0.24
31437 H 13.978486571936934 76.27319605738022 143.8442315208096 H 0.0 **** 0.06
31438 H 13.510287909703692 74.93025846733504 144.91522409568657 H 0.0 **** 0.06
31439 H 14.633149253138413 74.64162050844702 143.56323072068466 H 0.0 **** 0.06
31440 H 12.916443696531438 74.98012313367124 143.23690972900755 H 0.0 **** 0.06
31441 C 72.42372265078413 94.33878322782239 94.2401228437159 C 0.0 **** -0.24
31442 H 72.10394913515906 93.2981875103585 94.30133052448501 H 0.0 **** 0.06
31443 H 72.27425323812115 94.82131140805829 95.20722596618687 H 0.0 **** 0.06
31444 H 71.83706846871769 94.85529745718053 93.48063827948522 H 0.0 **** 0.06
31445 H 73.48022962936213 94.3783231057655 93.97386071101897 H 0.0 **** 0.06
31446 C 44.66754491737976 37.09905185586951 130.55739771208835 C 0.0 **** -0.24
31447 H 44.11099844913991 36.2581729927313 130.14441268694247 H 0.0 **** 0.06
31448 H 45.73622127751389 36.88893782204274 130.5044556061339 H 0.0 **** 0.06
31449 H 44.37826301639063 37.252000227507956 131.59672135632866 H 0.0 **** 0.06
31450 H 44.44504743898568 37.998861410243464 129.98267378347043 H 0.0 **** 0.06
31451 C 48.31976297315825 120.176564601344 99.97283335271244 C 0.0 **** -0.24
31452 H 49.221523115394305 120.04159929325554 100.5707923350709 H 0.0 **** 0.06
31453 H 47.48034906518711 120.40679589380353 100.62944188760359 H 0.0 **** 0.06
31454 H 48.11066177062163 119.26069042719725 99.42006569755483 H 0.0 **** 0.06
31455 H 48.46922761115056 120.99793779074425 99.27247324837764 H 0.0 **** 0.06
31456 C 137.25950967524435 13.157759639992946 14.403956879030716 C 0.0 **** -0.24
31457 H 137.5346757699384 14.010595256086617 13.78226886119873 H 0.0 **** 0.06
31458 H 136.69534740325713 13.505721214291952 15.268691247073178 H 0.0 **** 0.06
31459 H 138.1618737297611 12.647201018402086 14.739401174158473 H 0.0 **** 0.06
31460 H 136.64680560707006 12.467747389245176 13.822549295088066 H 0.0 **** 0.06
31461 C 24.849617785352763 71.49556420622481 25.975749978552102 C 0.0 **** -0.24
31462 H 25.927112380293096 71.6119221949764 25.85351997952162 H 0.0 **** 0.06
31463 H 24.37788287159779 71.43431579193528 24.995047323517866 H 0.0 **** 0.06
31464 H 24.451114959958318 72.35252323294448 26.518306516629792 H 0.0 **** 0.06
31465 H 24.64469202574827 70.58329541168459 26.535400715134386 H 0.0 **** 0.06
31466 C 32.99770419467916 3.989774220184188 5.531352580199027 C 0.0 **** -0.24
31467 H 33.87138515806697 3.4790325673854454 5.1255022763481435 H 0.0 **** 0.06
31468 H 32.6057885726629 3.423095773560817 6.376068856239382 H 0.0 **** 0.06
31469 H 32.23243385380533 4.06908750611484 4.7596359371797625 H 0.0 **** 0.06
31470 H 33.28342630578862 4.987892771752968 5.864493934276197 H 0.0 **** 0.06
31471 C 33.90455509008021 93.95820065853668 34.931882505239116 C 0.0 **** -0.24
31472 H 32.82409071853337 93.81286947193762 34.92758091399281 H 0.0 **** 0.06
31473 H 34.13384025920796 94.9833016426083 34.63912454351561 H 0.0 **** 0.06
31474 H 34.36804774320743 93.26599415727529 34.228478179869114 H 0.0 **** 0.06
31475 H 34.29105516791169 93.77069747186133 35.934240820362845 H 0.0 **** 0.06
31476 C 52.82444561355001 77.96207714980861 23.630544596700872 C 0.0 **** -0.24
31477 H 53.196601806102166 77.02196261073479 24.037930563448185 H 0.0 **** 0.06
31478 H 52.77599740196922 77.89302625343404 22.544066977625278 H 0.0 **** 0.06
31479 H 53.495945831546265 78.77199317107707 23.915087002549797 H 0.0 **** 0.06
31480 H 51.82839873063935 78.15880759972066 24.02773051528891 H 0.0 **** 0.06
31481 C 29.637610316001556 15.797703442935557 61.17367040052932 C 0.0 **** -0.24
31482 H 29.07247819283954 16.522216615349663 61.76083586655102 H 0.0 **** 0.06
31483 H 30.06588730252959 16.29314629084243 60.30137275790983 H 0.0 **** 0.06
31484 H 28.97389595337914 14.99740351651812 60.84806923121559 H 0.0 **** 0.06
31485 H 30.438655845781895 15.380174132784418 61.78390334238321 H 0.0 **** 0.06
31486 C 109.95381954767619 43.826987946822555 40.92232257622999 C 0.0 **** -0.24
31487 H 110.40325348204136 43.34032620214991 41.78842269676812 H 0.0 **** 0.06
31488 H 109.52056639888333 43.07145104282483 40.265879393943976 H 0.0 **** 0.06
31489 H 110.71906706898811 44.38284071240756 40.3813467981455 H 0.0 **** 0.06
31490 H 109.17363920457659 44.51149878121328 41.25467845259641 H 0.0 **** 0.06
31491 C 54.482014164638485 94.46771908842061 11.654829435570434 C 0.0 **** -0.24
31492 H 54.36309190813125 94.44687882157163 12.737675700863917 H 0.0 **** 0.06
31493 H 53.550554315163026 94.15683358699985 11.180957425766621 H 0.0 **** 0.06
31494 H 55.28270934170598 93.78701853471043 11.364438464314901 H 0.0 **** 0.06
31495 H 54.73170109355377 95.48014541040058 11.336246151336297 H 0.0 **** 0.06
31496 C 83.23805412552893 87.81124529727421 45.272964698566994 C 0.0 **** -0.24
31497 H 83.76109865427492 88.32490995515676 44.46620950371968 H 0.0 **** 0.06
31498 H 83.92495664294024 87.64756860224865 46.103634182087504 H 0.0 **** 0.06
31499 H 82.86834936978647 86.85207622056362 44.91231124501657 H 0.0 **** 0.06
31500 H 82.39953856375513 88.42127801206645 45.60856658491571 H 0.0 **** 0.06
31501 C 97.27509648264083 50.24971923290609 30.795729426722005 C 0.0 **** -0.24
31502 H 97.5172471263694 50.58807623521729 31.803466756275554 H 0.0 **** 0.06
31503 H 98.12961837681792 49.71813310755563 30.376256604750694 H 0.0 **** 0.06
31504 H 97.04005713107063 51.1109865744009 30.17088389547726 H 0.0 **** 0.06
31505 H 96.4146626859067 49.581981847884634 30.83442497773612 H 0.0 **** 0.06
31506 C 7.134726701915071 6.978630014685649 119.64560346748391 C 0.0 **** -0.24
31507 H 7.65505479771744 6.0319700341768225 119.50309588284676 H 0.0 **** 0.06
31508 H 7.056186223617942 7.497062046953715 118.689560291144 H 0.0 **** 0.06
31509 H 7.691705094818417 7.596650448601423 120.34975949102278 H 0.0 **** 0.06
31510 H 6.136200479652388 6.787637145655879 120.0392899190968 H 0.0 **** 0.06
31511 C 69.78545296506744 90.48134999038483 96.14337211882932 C 0.0 **** -0.24
31512 H 69.34505811953531 90.96118262268324 97.01731428813942 H 0.0 **** 0.06
31513 H 70.79164906733934 90.87042695536114 95.98412871345909 H 0.0 **** 0.06
31514 H 69.17222334884289 90.69129012812492 95.266550295739 H 0.0 **** 0.06
31515 H 69.83260369631134 89.40443766082984 96.30508340453228 H 0.0 **** 0.06
31516 C 126.75770498911379 47.79072103522407 48.31551064135711 C 0.0 **** -0.24
31517 H 126.57992478985142 46.7163082816821 48.26982333271714 H 0.0 **** 0.06
31518 H 127.04565247777288 48.15316529514695 47.32861028915356 H 0.0 **** 0.06
31519 H 127.55694703368937 47.9974047642182 49.026348759180095 H 0.0 **** 0.06
31520 H 125.84625782477497 48.295215368451224 48.6361544141959 H 0.0 **** 0.06
31521 C 0.5569236433277354 32.68663823172923 23.104290306707725 C 0.0 **** -0.24
31522 H 0.1076469932968962 31.749428044682503 23.43302190099277 H 0.0 **** 0.06
31523 H 0.7205783105083583 33.332856408408674 23.967095119803375 H 0.0 **** 0.06
31524 H -0.1103258279413808 33.182297153026894 22.39965973488811 H 0.0 **** 0.06
31525 H 1.5112644109482005 32.47989433649843 22.618974328747292 H 0.0 **** 0.06
31526 C 64.83022160508591 28.397932276000965 76.66196620505069 C 0.0 **** -0.24
31527 H 64.73050875691459 27.600428740544736 75.9257689840459 H 0.0 **** 0.06
31528 H 64.85634873984628 29.361078292494646 76.15202500061342 H 0.0 **** 0.06
31529 H 65.754307816644 28.25966534384328 77.22355398980582 H 0.0 **** 0.06
31530 H 63.9814229527924 28.369895545276805 77.34522580829888 H 0.0 **** 0.06
31531 C 35.710020279374874 31.42944408278737 14.304657993243836 C 0.0 **** -0.24
31532 H 36.673652404814845 31.81956598031971 14.633507448459795 H 0.0 **** 0.06
31533 H 35.44588494005491 31.876806814812994 13.346286448939225 H 0.0 **** 0.06
31534 H 34.948066130852396 31.674992632568348 15.043720667918592 H 0.0 **** 0.06
31535 H 35.775765705571786 30.346770262356443 14.194872503264492 H 0.0 **** 0.06
31536 C 138.2329886954762 143.21770966307162 90.63720200837199 C 0.0 **** -0.24
31537 H 138.27013446350878 142.91951494789413 91.68444694294281 H 0.0 **** 0.06
31538 H 137.41004429155197 142.7008289733715 90.14180839514424 H 0.0 **** 0.06
31539 H 139.17229721304506 142.95426121892632 90.1513056106131 H 0.0 **** 0.06
31540 H 138.078266452386 144.29367802226093 90.57124807013152 H 0.0 **** 0.06
31541 C 5.499812308204632 59.007978030887486 18.463030301575287 C 0.0 **** -0.24
31542 H 5.300587827951013 57.9709619851174 18.193584192186705 H 0.0 **** 0.06
31543 H 6.318169025580463 59.04473998439154 19.18335926690014 H 0.0 **** 0.06
31544 H 4.605861591563311 59.44684334087721 18.90611635548808 H 0.0 **** 0.06
31545 H 5.776381196885108 59.56807529808299 17.56957934440186 H 0.0 **** 0.06
31546 C 60.322322458314886 126.11330023876369 9.202516923576468 C 0.0 **** -0.24
31547 H 61.021585108470816 126.52392291506271 9.93045210788813 H 0.0 **** 0.06
31548 H 60.752339012081094 126.18957166730198 8.202990334337358 H 0.0 **** 0.06
31549 H 59.38779417562672 126.67292943964884 9.24038427971061 H 0.0 **** 0.06
31550 H 60.12856023873273 125.06576690168356 9.4361920534119 H 0.0 **** 0.06
31551 C 55.40044639070656 53.651624623234696 76.46224373782407 C 0.0 **** -0.24
31552 H 54.40663081912365 53.36225026296184 76.80602571936197 H 0.0 **** 0.06
31553 H 55.59156908238434 54.68895338753725 76.7365738970511 H 0.0 **** 0.06
31554 H 55.45387365285413 53.54624170351762 75.3787619174107 H 0.0 **** 0.06
31555 H 56.14743541325083 53.008250106848976 76.92719806724048 H 0.0 **** 0.06
31556 C 137.29817205913287 43.38001127191495 9.279558657461635 C 0.0 **** -0.24
31557 H 136.992851659879 44.368890557475424 8.936457884801971 H 0.0 **** 0.06
31558 H 137.2285401840971 42.67107733030366 8.454953336968224 H 0.0 **** 0.06
31559 H 136.64376984958594 43.060257541960965 10.09149724368276 H 0.0 **** 0.06
31560 H 138.32729045294295 43.42275713613142 9.637403675192978 H 0.0 **** 0.06
31561 C 93.54921171417914 32.85712780368212 109.07178697909562 C 0.0 **** -0.24
31562 H 93.28399722699743 33.4302933084515 108.18301225743424 H 0.0 **** 0.06
31563 H 92.92065418530697 31.967990342101494 109.13160297112178 H 0.0 **** 0.06
31564 H 93.39568943414001 33.47215190106476 109.95874085807687 H 0.0 **** 0.06
31565 H 94.595943152218 32.55922495948421 109.01225479253957 H 0.0 **** 0.06
31566 C 1.429889289797785 88.74625384677682 7.174571001400608 C 0.0 **** -0.24
31567 H 2.318423095711154 88.80743670936863 7.802747105751081 H 0.0 **** 0.06
31568 H 1.3909168607748086 87.76715821668091 6.69564944734168 H 0.0 **** 0.06
31569 H 1.4709643106066324 89.52295457169936 6.4104546787401375 H 0.0 **** 0.06
31570 H 0.5400120237167698 88.88680344554024 7.787436500796218 H 0.0 **** 0.06
31571 C 144.97109097163917 132.80475457294284 8.23835669245706 C 0.0 **** -0.24
31572 H 145.92196961941954 132.60921996001275 7.742529187001384 H 0.0 **** 0.06
31573 H 144.5058457777415 131.85928099864765 8.51794665217523 H 0.0 **** 0.06
31574 H 144.31360390740252 133.34870373165936 7.5611130775817585 H 0.0 **** 0.06
31575 H 145.14568777955878 133.4025353336132 9.13355670451914 H 0.0 **** 0.06
31576 C 21.10113104507154 87.3598153309006 133.51216242427498 C 0.0 **** -0.24
31577 H 22.173817317015676 87.55041732252805 133.5558084274742 H 0.0 **** 0.06
31578 H 20.742018355956603 87.535113952459 132.4981104722337 H 0.0 **** 0.06
31579 H 20.58528365133956 88.02907073334202 134.2009705141212 H 0.0 **** 0.06
31580 H 20.904090221644907 86.32586952311358 133.79401671697633 H 0.0 **** 0.06
31581 C 75.70191731476011 135.43798586806201 126.01625989369663 C 0.0 **** -0.24
31582 H 75.5712143152942 134.80615194670955 125.13706960182913 H 0.0 **** 0.06
31583 H 75.56967439213425 136.48317908416772 125.73394816350498 H 0.0 **** 0.06
31584 H 76.70397680446541 135.29516295790376 126.42016616080423 H 0.0 **** 0.06
31585 H 74.9642415491434 135.16855057431994 126.77058136461976 H 0.0 **** 0.06
31586 C 127.5568470828089 20.541148002290242 133.1474798479977 C 0.0 **** -0.24
31587 H 127.89084946397051 21.433234336692266 132.617049546002 H 0.0 **** 0.06
31588 H 128.06460822999836 19.665845253764722 132.7423618256707 H 0.0 **** 0.06
31589 H 126.47954911155048 20.427224019737707 133.02272670018706 H 0.0 **** 0.06
31590 H 127.79115642796202 20.64015569385876 134.2076692322723 H 0.0 **** 0.06
31591 C 79.73850732337081 35.95429333162849 125.95698791751322 C 0.0 **** -0.24
31592 H 80.28492464453382 35.82801544841351 126.89102049337457 H 0.0 **** 0.06
31593 H 80.38405372243204 36.430972339950046 125.21977164177434 H 0.0 **** 0.06
31594 H 78.86205559641144 36.578848732085646 126.13054145292959 H 0.0 **** 0.06
31595 H 79.4218383653819 34.978569785636665 125.58634752762869 H 0.0 **** 0.06
31596 C 81.6367726913397 49.96133105244773 105.51032951417635 C 0.0 **** -0.24
31597 H 81.04358087786605 50.006519652261545 106.42334119722041 H 0.0 **** 0.06
31598 H 82.27460221374693 50.84338312210943 105.44850259651302 H 0.0 **** 0.06
31599 H 80.97318330851735 49.93022842271506 104.64640669618697 H 0.0 **** 0.06
31600 H 82.25759480221453 49.064743486805995 105.52420757132747 H 0.0 **** 0.06
31601 C 59.5912061005383 128.36253731903048 77.8335471419523 C 0.0 **** -0.24
31602 H 59.516125956377806 127.59615006368625 78.60390444247702 H 0.0 **** 0.06
31603 H 60.369282182434375 129.07661048853757 78.1046892581611 H 0.0 **** 0.06
31604 H 58.63631869134642 128.88171237481254 77.74381838124464 H 0.0 **** 0.06
31605 H 59.84217676041811 127.89641825929675 76.88100075231017 H 0.0 **** 0.06
31606 C 50.35203071461926 78.47717573035104 48.27611277610859 C 0.0 **** -0.24
31607 H 51.16499994595888 78.86649684701894 47.662670012687755 H 0.0 **** 0.06
31608 H 50.478141051701 78.81808318137138 49.30430742777594 H 0.0 **** 0.06
31609 H 50.36789137474294 77.38725661096589 48.24947289497487 H 0.0 **** 0.06
31610 H 49.399987165345635 78.83748239693898 47.88689167546468 H 0.0 **** 0.06
31611 C 106.17223143400902 85.09116499735396 121.22461339530895 C 0.0 **** -0.24
31612 H 106.20033620679284 85.83225003548321 122.02397628078506 H 0.0 **** 0.06
31613 H 106.50880375235037 84.12837281699407 121.60969417562592 H 0.0 **** 0.06
31614 H 106.82668913359664 85.40777155575142 120.41299571004095 H 0.0 **** 0.06
31615 H 105.151189152477 84.99764332003454 120.85335702107159 H 0.0 **** 0.06
31616 C 29.52896220302086 33.31046004323193 70.74137461920657 C 0.0 **** -0.24
31617 H 29.00396972610539 33.93422939977464 71.4643999008257 H 0.0 **** 0.06
31618 H 30.604721586862233 33.44451687789706 70.86010735719702 H 0.0 **** 0.06
31619 H 29.235406126441994 33.600331491379166 69.73179731725855 H 0.0 **** 0.06
31620 H 29.271986542083127 32.265178189324786 70.90952395928207 H 0.0 **** 0.06
31621 C 105.140937994148 132.40447006235766 56.154329325079914 C 0.0 **** -0.24
31622 H 104.24939278552472 131.78249284718217 56.07607736412254 H 0.0 **** 0.06
31623 H 105.68410799168433 132.38105159380112 55.20902944020817 H 0.0 **** 0.06
31624 H 105.77988786602222 132.0228166284936 56.9509902536778 H 0.0 **** 0.06
31625 H 104.84980777255169 133.42935593521688 56.382226217702026 H 0.0 **** 0.06
31626 C 83.63626616187638 76.75431475665161 65.80460699412112 C 0.0 **** -0.24
31627 H 84.41227055827102 77.4924613149415 66.00733768606437 H 0.0 **** 0.06
31628 H 82.88793005378498 77.18775535274436 65.14086515442676 H 0.0 **** 0.06
31629 H 83.16336764684321 76.4569905555252 66.74058680689205 H 0.0 **** 0.06
31630 H 84.08257505889001 75.88035020533235 65.32877374014276 H 0.0 **** 0.06
31631 C 95.3828700417757 13.620937694928159 39.11691685138784 C 0.0 **** -0.24
31632 H 94.36169708076469 13.497288444612366 38.75536799779652 H 0.0 **** 0.06
31633 H 95.95677742757752 14.198735406450112 38.392559201277784 H 0.0 **** 0.06
31634 H 95.84191972353813 12.641590276516467 39.24727737105526 H 0.0 **** 0.06
31635 H 95.36893041614152 14.145911751756444 40.07191203988623 H 0.0 **** 0.06
31636 C 45.23285611744949 8.867097829118222 145.52359497609928 C 0.0 **** -0.24
31637 H 44.389905442449574 8.682347543408468 146.19011836277156 H 0.0 **** 0.06
31638 H 44.922171768125835 8.703396800991612 144.4917742070606 H 0.0 **** 0.06
31639 H 46.04758899698781 8.185950979486307 145.7722438551854 H 0.0 **** 0.06
31640 H 45.570730041580916 9.896245709629966 145.64336445487572 H 0.0 **** 0.06
31641 C 47.746779617949784 7.836751601849937 31.06601308289816 C 0.0 **** -0.24
31642 H 46.823656166323715 7.421711472116794 31.4687619072575 H 0.0 **** 0.06
31643 H 48.21230974947966 8.480641485144428 31.813403536403314 H 0.0 **** 0.06
31644 H 47.52315102575439 8.420374702998703 30.173185994216283 H 0.0 **** 0.06
31645 H 48.42754730653789 7.0260314922036855 30.809550446713217 H 0.0 **** 0.06
31646 C 112.19152506828179 109.32077867140009 1.2454535105852358 C 0.0 **** -0.24
31647 H 111.41994866845387 110.05152777826555 1.0023043516848702 H 0.0 **** 0.06
31648 H 112.36919912856472 109.3245801947287 2.321382142655068 H 0.0 **** 0.06
31649 H 113.11320526774897 109.57826812509711 0.723155981522126 H 0.0 **** 0.06
31650 H 111.86263202604216 108.3287731949548 0.9341025106191125 H 0.0 **** 0.06
31651 C 1.2551284649226204 129.51505018891038 138.83722701253444 C 0.0 **** -0.24
31652 H 1.0676787157286753 129.14078253798047 139.8436748331084 H 0.0 **** 0.06
31653 H 0.6312680785078442 128.97117229170874 138.12626354567075 H 0.0 **** 0.06
31654 H 2.305210501232864 129.3698555962292 138.5854769354617 H 0.0 **** 0.06
31655 H 1.013726089915167 130.57704520450656 138.794013923211 H 0.0 **** 0.06
31656 C 54.62240083928074 25.155340056181217 121.64547477360792 C 0.0 **** -0.24
31657 H 54.629014402107885 25.908853115489023 120.85866147035175 H 0.0 **** 0.06
31658 H 55.17709400617221 25.52635339665251 122.50822477031865 H 0.0 **** 0.06
31659 H 55.09097883947817 24.242023380459727 121.27693269103959 H 0.0 **** 0.06
31660 H 53.5940120502181 24.943349546245145 121.93768943849524 H 0.0 **** 0.06
31661 C 18.682047682596192 35.6818295206636 77.28486094649168 C 0.0 **** -0.24
31662 H 17.93755188542309 36.37521446656194 77.67881565877711 H 0.0 **** 0.06
31663 H 19.131885492368895 35.126539483650504 78.10871158474498 H 0.0 **** 0.06
31664 H 19.454741547909066 36.24028303502587 76.75755106579126 H 0.0 **** 0.06
31665 H 18.201346718535206 34.986603784754436 76.5966344908833 H 0.0 **** 0.06
31666 C 67.9026637811652 107.43238686417907 4.087737467516337 C 0.0 **** -0.24
31667 H 67.89935714096643 107.10463909859014 3.0475646833575745 H 0.0 **** 0.06
31668 H 67.32678589430807 106.72959553249085 4.6908120483797475 H 0.0 **** 0.06
31669 H 67.45525284074218 108.42352822771973 4.157795412226012 H 0.0 **** 0.06
31670 H 68.92892648483404 107.46955193301064 4.452149989461166 H 0.0 **** 0.06
31671 C 107.12282937142103 54.92957993767993 129.85266891777866 C 0.0 **** -0.24
31672 H 108.13094506008233 54.70330500273951 130.20226637057186 H 0.0 **** 0.06
31673 H 106.55503796378943 55.39500512956917 130.6581558463687 H 0.0 **** 0.06
31674 H 106.62976079446511 54.006641957593274 129.5448267025891 H 0.0 **** 0.06
31675 H 107.17835602738629 55.61258653110144 129.004621331125 H 0.0 **** 0.06
31676 C 137.1968629053763 96.11166397441377 136.81223751611202 C 0.0 **** -0.24
31677 H 136.83131612554214 95.21983968553491 136.30390017293232 H 0.0 **** 0.06
31678 H 138.07757579558364 96.48995770880516 136.2923956256861 H 0.0 **** 0.06
31679 H 137.46008702129927 95.86219320905748 137.83968447713764 H 0.0 **** 0.06
31680 H 136.41835193951624 96.87509126903217 136.8116266376159 H 0.0 **** 0.06
31681 C 86.0555401136703 39.199655590621035 14.479662511800981 C 0.0 **** -0.24
31682 H 87.10603678786619 39.28431934338633 14.75984768537785 H 0.0 **** 0.06
31683 H 85.52697966355744 40.10566706902816 14.777677593986333 H 0.0 **** 0.06
31684 H 85.61480564569851 38.338850749775304 14.983821324249831 H 0.0 **** 0.06
31685 H 85.97678025174565 39.069304162725984 13.40088207260073 H 0.0 **** 0.06
31686 C 91.27219084022387 9.774399798504277 42.0402827011996 C 0.0 **** -0.24
31687 H 90.53614929244483 10.42515416248753 41.56940751146698 H 0.0 **** 0.06
31688 H 90.7776011106281 8.877345167670626 42.415173301599 H 0.0 **** 0.06
31689 H 91.74573372666427 10.3013296354099 42.86864432341929 H 0.0 **** 0.06
31690 H 92.02937292522613 9.49269445522512 41.30881891568191 H 0.0 **** 0.06
31691 C 85.11879593037696 28.663028620489968 18.000902680869245 C 0.0 **** -0.24
31692 H 85.42142311967206 28.578292573520628 19.044489989873142 H 0.0 **** 0.06
31693 H 84.06864391618909 28.38504861182122 17.90351776074536 H 0.0 **** 0.06
31694 H 85.72836822078528 27.996403324513324 17.39142650862354 H 0.0 **** 0.06
31695 H 85.25537251430897 29.69061404093509 17.66433036099727 H 0.0 **** 0.06
31696 C 87.20804813858264 9.125406939269112 58.159808191936875 C 0.0 **** -0.24
31697 H 88.07797148107845 9.4872641078058 58.707878135969125 H 0.0 **** 0.06
31698 H 87.52100941182965 8.374816185412953 57.43401575724813 H 0.0 **** 0.06
31699 H 86.73424768155917 9.9584919473902 57.63945307825503 H 0.0 **** 0.06
31700 H 86.49711832820093 8.682313476320246 58.85799221694785 H 0.0 **** 0.06
31701 C 5.531014114250553 134.6051707284533 56.643679798795134 C 0.0 **** -0.24
31702 H 5.022486814730485 133.6451689831208 56.560815536744656 H 0.0 **** 0.06
31703 H 4.790416887115811 135.40352837454608 56.715525745076604 H 0.0 **** 0.06
31704 H 6.151861206602746 134.7636690634337 55.762140211530635 H 0.0 **** 0.06
31705 H 6.157561058474528 134.60994410316385 57.53564058341573 H 0.0 **** 0.06
31706 C 125.73205370294514 14.64828641707561 126.21309317338887 C 0.0 **** -0.24
31707 H 125.11468793233861 15.126213311834562 126.97365827981247 H 0.0 **** 0.06
31708 H 126.3493427228133 15.40040342782001 125.72039222484449 H 0.0 **** 0.06
31709 H 125.09091891452809 14.164274822585298 125.47614007459708 H 0.0 **** 0.06
31710 H 126.3732652421005 13.902254106062259 126.68218211430127 H 0.0 **** 0.06
31711 C 16.51978385286742 141.98329053672725 116.30543335243453 C 0.0 **** -0.24
31712 H 16.6126009972956 141.68864943827833 115.26044030544938 H 0.0 **** 0.06
31713 H 16.921588532653175 142.98766049806966 116.4361805951184 H 0.0 **** 0.06
31714 H 17.07459462250796 141.28404534600276 116.93073092513788 H 0.0 **** 0.06
31715 H 15.467661448394267 141.97287926248114 116.59350978885317 H 0.0 **** 0.06
31716 C 120.26507246652609 73.80289419796756 22.383893400212713 C 0.0 **** -0.24
31717 H 119.50713707531783 74.54621770154674 22.629936045559433 H 0.0 **** 0.06
31718 H 121.23034312303422 74.1246584519055 22.776595936268734 H 0.0 **** 0.06
31719 H 120.33104510667756 73.6956727808655 21.300702687229972 H 0.0 **** 0.06
31720 H 119.9929505951175 72.84525764079862 22.827603669748612 H 0.0 **** 0.06
31721 C 84.80927924217264 3.6741118084533504 93.94010211262534 C 0.0 **** -0.24
31722 H 84.544412370876 2.6361293944583046 93.73551960475001 H 0.0 **** 0.06
31723 H 85.74645182042919 3.915435031808837 93.4372148343725 H 0.0 **** 0.06
31724 H 84.92609943868482 3.8139857111475486 95.01470446893862 H 0.0 **** 0.06
31725 H 84.01981907018212 4.329406196249078 93.57133684537379 H 0.0 **** 0.06
31726 C 75.4389100332374 89.39702895626633 83.3894465760409 C 0.0 **** -0.24
31727 H 76.35191294940275 89.98827732721269 83.31683149972216 H 0.0 **** 0.06
31728 H 74.99151870034116 89.54126447023333 84.37262610514716 H 0.0 **** 0.06
31729 H 75.67716270923769 88.34288212104445 83.24858140354135 H 0.0 **** 0.06
31730 H 74.7368595694928 89.71720829310962 82.61910621871839 H 0.0 **** 0.06
31731 C 122.85461708512919 2.021923040163472 34.4625543794798 C 0.0 **** -0.24
31732 H 123.78593489881482 2.4766709588695655 34.80230932263294 H 0.0 **** 0.06
31733 H 122.82903166779305 0.9762898635578665 34.770353942261465 H 0.0 **** 0.06
31734 H 122.79563292393443 2.0826378744125726 33.37634425860904 H 0.0 **** 0.06
31735 H 122.01082779410187 2.5515300681492015 34.90402566086806 H 0.0 **** 0.06
31736 C 8.125669354855177 133.38616795211644 21.394054810728683 C 0.0 **** -0.24
31737 H 8.160967829710899 133.50375801819766 20.310525607419528 H 0.0 **** 0.06
31738 H 9.030139117972283 132.88107365588905 21.733603205508864 H 0.0 **** 0.06
31739 H 7.253094231620082 132.7915141414457 21.666349580657247 H 0.0 **** 0.06
31740 H 8.058184382271804 134.36637331291837 21.86429097973189 H 0.0 **** 0.06
31741 C 137.0625443053782 61.606914737378474 83.28042252185756 C 0.0 **** -0.24
31742 H 136.51310596798746 61.36282546252687 84.189846434952 H 0.0 **** 0.06
31743 H 138.02429874284823 61.09432530463323 83.28944242759864 H 0.0 **** 0.06
31744 H 137.22405064216835 62.68399221492763 83.23183521783004 H 0.0 **** 0.06
31745 H 136.4873320284729 61.28636206019746 82.41231096425531 H 0.0 **** 0.06
31746 C 99.81091941338349 7.273145709042264 83.15440926520849 C 0.0 **** -0.24
31747 H 99.46379702279137 6.248498338167533 83.02659045612444 H 0.0 **** 0.06
31748 H 98.96502811994156 7.9145283183450985 83.40287090799494 H 0.0 **** 0.06
31749 H 100.26972452709612 7.619740476228401 82.22876581185385 H 0.0 **** 0.06
31750 H 100.54441165765667 7.310497687331797 83.95955759616483 H 0.0 **** 0.06
31751 C 142.3209208464696 124.6343007031735 50.912653417957955 C 0.0 **** -0.24
31752 H 142.52476833857742 123.8292123753774 50.205797749503546 H 0.0 **** 0.06
31753 H 143.25205963282247 125.1464888304227 51.15687425753751 H 0.0 **** 0.06
31754 H 141.886459570193 124.21703297564645 51.82214999552622 H 0.0 **** 0.06
31755 H 141.62207618865847 125.34079209075631 50.4666042179696 H 0.0 **** 0.06
31756 C 105.19287344692418 6.043165688562169 61.15098157324667 C 0.0 **** -0.24
31757 H 105.56368857609722 5.263693855755321 61.81627976260887 H 0.0 **** 0.06
31758 H 105.80773273556711 6.075877331642914 60.25099771601947 H 0.0 **** 0.06
31759 H 105.23868605538395 7.006776389796755 61.65862172956213 H 0.0 **** 0.06
31760 H 104.15978573038056 5.824755444967138 60.87795466315592 H 0.0 **** 0.06
31761 C 1.77142929655734 3.4966389125929425 123.32139121176081 C 0.0 **** -0.24
31762 H 1.5946563785382182 3.8617215532308364 124.3341883252177 H 0.0 **** 0.06
31763 H 1.6468656067391017 2.41379578361682 123.29875137068737 H 0.0 **** 0.06
31764 H 2.785425886812586 3.7529627357120887 123.01594257578816 H 0.0 **** 0.06
31765 H 1.0586411133419062 3.9595915714606065 122.63979478549649 H 0.0 **** 0.06
31766 C 35.44094490838708 101.49891323232809 118.58528122795983 C 0.0 **** -0.24
31767 H 34.87801538126374 100.93876165664001 117.8394699895205 H 0.0 **** 0.06
31768 H 36.38120926881061 101.83879801797181 118.15043621197859 H 0.0 **** 0.06
31769 H 35.646994843377314 100.85756501898818 119.44226068753485 H 0.0 **** 0.06
31770 H 34.85740001338813 102.36106337017618 118.90812854452102 H 0.0 **** 0.06
31771 C 89.46337227074658 30.14456500552589 15.525102019271515 C 0.0 **** -0.24
31772 H 89.34779063465213 29.612414261218134 14.580116077558031 H 0.0 **** 0.06
31773 H 88.89517021407929 29.63308286215343 16.30170894280114 H 0.0 **** 0.06
31774 H 89.09341288495405 31.1632803660232 15.415325417031504 H 0.0 **** 0.06
31775 H 90.51805138039877 30.16782520051325 15.800938698360234 H 0.0 **** 0.06
31776 C 48.256021110058285 76.74948467511071 80.54505592378928 C 0.0 **** -0.24
31777 H 47.740420742398044 77.51991172149046 79.97165874281608 H 0.0 **** 0.06
31778 H 48.74160282219009 76.0521228163749 79.86232629903809 H 0.0 **** 0.06
31779 H 47.53456639889578 76.21286439053782 81.16194384387646 H 0.0 **** 0.06
31780 H 49.00547588517853 77.21391775007622 81.18536938130838 H 0.0 **** 0.06
31781 C 36.82338916206832 104.95467141263899 119.5289147894041 C 0.0 **** -0.24
31782 H 37.32325639878118 103.9862636385388 119.52883270778375 H 0.0 **** 0.06
31783 H 37.338196523873954 105.62832463023021 118.8414667811877 H 0.0 **** 0.06
31784 H 36.84466320309935 105.37576678785062 120.53416550705504 H 0.0 **** 0.06
31785 H 35.78902255666012 104.82996735904408 119.2085828990327 H 0.0 **** 0.06
31786 C 25.66987507353746 113.84430007538761 101.57964334509816 C 0.0 **** -0.24
31787 H 26.70522223672109 114.06275856768589 101.32085004638448 H 0.0 **** 0.06
31788 H 25.643746360675976 113.18725312316816 102.44950168450012 H 0.0 **** 0.06
31789 H 25.181479380808696 113.35188091473593 100.73807994078047 H 0.0 **** 0.06
31790 H 25.1482438575747 114.77241863667983 101.810152874558 H 0.0 **** 0.06
31791 C 33.123640562316126 112.32824483097718 27.431330669763696 C 0.0 **** -0.24
31792 H 33.95896060128253 111.69520307028463 27.730669037259233 H 0.0 **** 0.06
31793 H 33.22373797531843 112.58721642774677 26.3764580744295 H 0.0 **** 0.06
31794 H 33.124409521989776 113.23890592587631 28.03030785989158 H 0.0 **** 0.06
31795 H 32.18675266930241 111.79205452326667 27.586726883521784 H 0.0 **** 0.06
31796 C 77.64691110780902 65.68623216787512 136.4547526874459 C 0.0 **** -0.24
31797 H 77.16965968877739 64.78581242351098 136.06772649627163 H 0.0 **** 0.06
31798 H 78.20410247874258 66.17482099685199 135.65625874836482 H 0.0 **** 0.06
31799 H 78.32841948212058 65.4172987409838 137.26244327765937 H 0.0 **** 0.06
31800 H 76.8841819224769 66.36664047284413 136.83527165688645 H 0.0 **** 0.06
31801 C 67.55979319234086 126.50695340735757 104.7397565070032 C 0.0 **** -0.24
31802 H 67.1832513196359 126.41649551595515 103.72136982226309 H 0.0 **** 0.06
31803 H 67.07605495242433 127.35003100705771 105.23214998240044 H 0.0 **** 0.06
31804 H 68.6379655594667 126.6682857991112 104.71556674095103 H 0.0 **** 0.06
31805 H 67.34250785512272 125.5901330255377 105.28930308296307 H 0.0 **** 0.06
31806 C 40.084635982732664 37.03944083370098 139.63492443522068 C 0.0 **** -0.24
31807 H 40.48879630232935 36.05781840518938 139.38521902516578 H 0.0 **** 0.06
31808 H 38.99481208858256 36.9976782565968 139.6197016644333 H 0.0 **** 0.06
31809 H 40.43120776002044 37.77161863389631 138.9059844209675 H 0.0 **** 0.06
31810 H 40.42380664772563 37.32831703984073 140.62954128532817 H 0.0 **** 0.06
31811 C 97.96966545884419 140.4096327393813 111.01748134492682 C 0.0 **** -0.24
31812 H 98.2092367734511 139.36971403032217 111.24042433948337 H 0.0 **** 0.06
31813 H 98.861852441123 140.91671425852797 110.64965579917917 H 0.0 **** 0.06
31814 H 97.61717516000459 140.9039326690659 111.92176171441649 H 0.0 **** 0.06
31815 H 97.19027003542902 140.44689406382503 110.25599642031993 H 0.0 **** 0.06
31816 C 3.6217424085971004 120.58624620624447 88.53849501050965 C 0.0 **** -0.24
31817 H 3.7773190949476394 120.57016303939535 87.46015689714721 H 0.0 **** 0.06
31818 H 4.528226407496568 120.93750398185297 89.03180388573365 H 0.0 **** 0.06
31819 H 3.3847878517068466 119.58113073674006 88.88581659177675 H 0.0 **** 0.06
31820 H 2.795884422529845 121.25680601383017 88.77642995239557 H 0.0 **** 0.06
31821 C 41.67545982025993 12.801590677243837 70.79294392203838 C 0.0 **** -0.24
31822 H 41.545389705059534 12.071502283568293 71.59187045469989 H 0.0 **** 0.06
31823 H 41.96103321865749 12.287765933946162 69.87518096080919 H 0.0 **** 0.06
31824 H 42.457012463512086 13.508689186215122 71.07231481170717 H 0.0 **** 0.06
31825 H 40.73929886196822 13.337526691774372 70.63451358366606 H 0.0 **** 0.06
31826 C 98.59754931953024 104.54487200935174 18.782784705665875 C 0.0 **** -0.24
31827 H 98.9286743418458 105.46947690235181 19.256261140927933 H 0.0 **** 0.06
31828 H 98.75287387822739 103.71073840933134 19.46765064295127 H 0.0 **** 0.06
31829 H 99.1702248025669 104.37861615338747 17.87089456099099 H 0.0 **** 0.06
31830 H 97.53756813913142 104.62252058538402 18.538280006896855 H 0.0 **** 0.06
31831 C 31.45460020003523 132.4667268204084 34.26270391413189 C 0.0 **** -0.24
31832 H 31.26141546276193 133.10328156336217 35.1262145487008 H 0.0 **** 0.06
31833 H 31.07803167389946 131.46264667394928 34.46045412019491 H 0.0 **** 0.06
31834 H 32.52858921494615 132.42192053796643 34.07776890552301 H 0.0 **** 0.06
31835 H 30.95182147968842 132.8782654546789 33.38818041153037 H 0.0 **** 0.06
31836 C 57.473978335507894 88.82223482310525 29.873718593725364 C 0.0 **** -0.24
31837 H 56.44739033302969 88.5039357620758 29.69574493390261 H 0.0 **** 0.06
31838 H 58.116930363417936 88.43376328741032 29.083121663369994 H 0.0 **** 0.06
31839 H 57.810707857788515 88.43891877953052 30.837298879262278 H 0.0 **** 0.06
31840 H 57.52105000904322 89.91154006693445 29.879310699977097 H 0.0 **** 0.06
31841 C 87.87725583628782 75.52503851110731 24.642904780932184 C 0.0 **** -0.24
31842 H 87.3534707713394 75.69545853563011 25.583601929992057 H 0.0 **** 0.06
31843 H 88.87377911251903 75.9646309079094 24.698724476422598 H 0.0 **** 0.06
31844 H 87.32125137286481 75.98783240364963 23.827805566857847 H 0.0 **** 0.06
31845 H 87.96197900769141 74.45329128452528 24.463147265655067 H 0.0 **** 0.06
31846 C 24.76190489941908 3.2190155239749707 142.59388517988884 C 0.0 **** -0.24
31847 H 25.0133704110209 4.143619964155832 143.11331622908475 H 0.0 **** 0.06
31848 H 25.328413230542537 2.394129546607573 143.0257339045951 H 0.0 **** 0.06
31849 H 25.01184304807782 3.3170036817177504 141.53658142956945 H 0.0 **** 0.06
31850 H 23.695227881053995 3.0224177484623667 142.69810761074643 H 0.0 **** 0.06
31851 C 72.13970359802363 91.73405192247883 139.98835530418214 C 0.0 **** -0.24
31852 H 72.7210784716521 92.65562633787232 139.99301527865373 H 0.0 **** 0.06
31853 H 71.4365179343585 91.74413484897218 140.82205682160821 H 0.0 **** 0.06
31854 H 72.80978464050844 90.88013360776218 140.08935439874705 H 0.0 **** 0.06
31855 H 71.59010536218369 91.65576790565183 139.05097958760877 H 0.0 **** 0.06
31856 C 71.40473176468383 47.18447229071489 130.89898019927847 C 0.0 **** -0.24
31857 H 71.04106785062355 46.77108553752515 129.95749843705914 H 0.0 **** 0.06
31858 H 71.31006116314352 46.43551721390992 131.68454790416823 H 0.0 **** 0.06
31859 H 70.81694470298558 48.06377304555721 131.16054549589543 H 0.0 **** 0.06
31860 H 72.45277710499866 47.46703784468633 130.79048756250927 H 0.0 **** 0.06
31861 C 125.54446121498191 94.31165607999105 123.83301308546447 C 0.0 **** -0.24
31862 H 126.60983052284146 94.22188075143629 124.04428898917791 H 0.0 **** 0.06
31863 H 125.16152801269382 95.22852884924853 124.28084717631862 H 0.0 **** 0.06
31864 H 125.01664901824105 93.45454364567073 124.25164116943506 H 0.0 **** 0.06
31865 H 125.38887582773086 94.34223816700421 122.75395058426977 H 0.0 **** 0.06
31866 C 6.861066419620926 63.876863450312555 95.34115843991168 C 0.0 **** -0.24
31867 H 7.902789176880361 63.557676549831015 95.3079873860853 H 0.0 **** 0.06
31868 H 6.671712380958326 64.58125592021315 94.53141639734798 H 0.0 **** 0.06
31869 H 6.660534433326376 64.35962243118229 96.2974489660441 H 0.0 **** 0.06
31870 H 6.211301193103424 63.009490992686125 95.22837976593945 H 0.0 **** 0.06
31871 C 12.036112810297823 21.375549996966505 51.36426789768339 C 0.0 **** -0.24
31872 H 11.703139886434172 22.098699545580814 50.619112409794226 H 0.0 **** 0.06
31873 H 12.957415810370506 21.730054946305494 51.82757445287662 H 0.0 **** 0.06
31874 H 12.217307143995441 20.415101077600944 50.88255807864711 H 0.0 **** 0.06
31875 H 11.265806447528426 21.2604392626207 52.12780675639729 H 0.0 **** 0.06
31876 C 18.615948515509984 6.852657551497906 99.05183414399708 C 0.0 **** -0.24
31877 H 19.59877964130544 7.212459217609805 98.74770156223242 H 0.0 **** 0.06
31878 H 18.67225015188214 5.785622061556477 99.27082125484533 H 0.0 **** 0.06
31879 H 17.90176277472756 7.022472410295684 98.24702393470913 H 0.0 **** 0.06
31880 H 18.293375437190605 7.390173766340915 99.94362158017063 H 0.0 **** 0.06
31881 C 57.11593707467097 44.46386295483208 119.63648761368978 C 0.0 **** -0.24
31882 H 56.48922910848427 43.700552022730534 120.09920729581063 H 0.0 **** 0.06
31883 H 57.9388301282778 44.711980333501714 120.30703417872235 H 0.0 **** 0.06
31884 H 56.520008730417246 45.355784169488885 119.44426943056817 H 0.0 **** 0.06
31885 H 57.515099727430766 44.08309862469028 118.69604695854474 H 0.0 **** 0.06
31886 C 47.812281558625145 61.45187148592278 20.916138366388978 C 0.0 **** -0.24
31887 H 47.17168913191267 61.309105422633635 21.786437793618752 H 0.0 **** 0.06
31888 H 47.88633032976696 60.51571311642516 20.362364764370675 H 0.0 **** 0.06
31889 H 48.80443769589509 61.760070688866804 21.24371627215536 H 0.0 **** 0.06
31890 H 47.385648490059154 62.221579330578095 20.273744474069552 H 0.0 **** 0.06
31891 C 12.384677517784858 47.772224042650976 90.51573452192878 C 0.0 **** -0.24
31892 H 11.7371633745108 46.957259415130565 90.84140927975272 H 0.0 **** 0.06
31893 H 13.020575730960978 48.08422451339146 91.3441595702231 H 0.0 **** 0.06
31894 H 11.77265281422622 48.613554117292864 90.18977227165658 H 0.0 **** 0.06
31895 H 13.006427323870412 47.432665003631726 89.6876350634765 H 0.0 **** 0.06
31896 C 63.51513701957961 32.250946488308074 69.43385867102043 C 0.0 **** -0.24
31897 H 62.635358117466154 32.196254340857394 68.79329195708841 H 0.0 **** 0.06
31898 H 64.23105517359099 32.95490138772331 69.00845223631943 H 0.0 **** 0.06
31899 H 63.973809563755225 31.26539635733647 69.50651734891717 H 0.0 **** 0.06
31900 H 63.220372779120055 32.58824791544939 70.42815779002294 H 0.0 **** 0.06
31901 C 83.91554747172037 48.269893406472974 49.77256509853454 C 0.0 **** -0.24
31902 H 83.09644831610265 47.683852808485426 50.18782264580943 H 0.0 **** 0.06
31903 H 84.0741058769117 49.15747589740113 50.385040770661234 H 0.0 **** 0.06
31904 H 83.66768524239554 48.57122920516987 48.75480385589971 H 0.0 **** 0.06
31905 H 84.82456666039747 47.667708079468255 49.76152494334711 H 0.0 **** 0.06
31906 C 12.767377305122807 44.8579547977111 41.96456686008932 C 0.0 **** -0.24
31907 H 12.50522531906529 45.76640067937262 41.42324600726684 H 0.0 **** 0.06
31908 H 13.419764562633475 44.24185364971436 41.345030599681394 H 0.0 **** 0.06
31909 H 11.85972443016766 44.30143706186536 42.20103297623754 H 0.0 **** 0.06
31910 H 13.283380935267928 45.12105664277317 42.88726860767443 H 0.0 **** 0.06
31911 C 32.396816616767296 112.60006712172866 2.3637234333318133 C 0.0 **** -0.24
31912 H 33.03304241578883 112.85517170742192 1.5160623618854459 H 0.0 **** 0.06
31913 H 32.012587421095134 111.5877018072406 2.2369389195490044 H 0.0 **** 0.06
31914 H 31.565173163761983 113.30156206916094 2.4178144572203735 H 0.0 **** 0.06
31915 H 32.97941158904956 112.6552771205527 3.284069515987568 H 0.0 **** 0.06
31916 C 92.88527328193385 47.9542364503439 41.988193653596454 C 0.0 **** -0.24
31917 H 93.52329269448515 47.48124416671101 41.24043600223261 H 0.0 **** 0.06
31918 H 91.88810652183653 47.515498545465164 41.94332236787098 H 0.0 **** 0.06
31919 H 92.82211996601944 49.02285450774684 41.78671677243534 H 0.0 **** 0.06
31920 H 93.30840554463728 47.795206199001484 42.979908003546 H 0.0 **** 0.06
31921 C 67.28533670362441 4.003695803536743 52.32955302110159 C 0.0 **** -0.24
31922 H 66.47881990398561 3.51780430572137 52.88005648766776 H 0.0 **** 0.06
31923 H 68.11356524200832 4.209988196627876 53.00785520706542 H 0.0 **** 0.06
31924 H 66.92189603655395 4.939083478879468 51.90323892974796 H 0.0 **** 0.06
31925 H 67.6250020362357 3.346854966403612 51.528967949120315 H 0.0 **** 0.06
31926 C 15.4090947967928 83.0475888075247 89.40531733369048 C 0.0 **** -0.24
31927 H 14.428194018007503 82.58874290828756 89.53309463998285 H 0.0 **** 0.06
31928 H 15.286408793874045 84.0839065181453 89.09011318553294 H 0.0 **** 0.06
31929 H 15.968438987332405 82.5010020317191 88.64572080156432 H 0.0 **** 0.06
31930 H 15.951702739220366 83.01560569127226 90.35007740578479 H 0.0 **** 0.06
31931 C 3.6572981314199637 66.72885065801988 68.99019616250419 C 0.0 **** -0.24
31932 H 4.587180551301781 66.20378077374657 69.21165779805213 H 0.0 **** 0.06
31933 H 3.64528248458042 67.01596412986616 67.93811563617062 H 0.0 **** 0.06
31934 H 3.5875734782542317 67.62060854449861 69.6120314968127 H 0.0 **** 0.06
31935 H 2.8117892681251746 66.07261596218437 69.19790920364984 H 0.0 **** 0.06
31936 C 126.76863069976875 5.361758034044755 23.714168291276167 C 0.0 **** -0.24
31937 H 126.26282709831288 4.41054518378391 23.88011927860441 H 0.0 **** 0.06
31938 H 127.6128586442546 5.210663947261679 23.03980433327706 H 0.0 **** 0.06
31939 H 127.12963769814097 5.752066487226642 24.665791200574517 H 0.0 **** 0.06
31940 H 126.07180786506176 6.071793289511788 23.270373624001365 H 0.0 **** 0.06
31941 C 7.9807790822619715 80.98445555177372 89.38287620229227 C 0.0 **** -0.24
31942 H 8.769953239873438 80.55122105338856 88.7677982026417 H 0.0 **** 0.06
31943 H 7.513065462740297 81.80874611936196 88.84395695934188 H 0.0 **** 0.06
31944 H 8.40905753377179 81.35463507826466 90.31458570722845 H 0.0 **** 0.06
31945 H 7.2341995481551535 80.2226548352503 89.60324063785293 H 0.0 **** 0.06
31946 C 130.55464342255797 38.68434923707943 108.53472523999123 C 0.0 **** -0.24
31947 H 129.506520818766 38.90296463687626 108.331085365193 H 0.0 **** 0.06
31948 H 131.18351098496467 39.41414236424153 108.02465320273247 H 0.0 **** 0.06
31949 H 130.79315177813712 37.68392675241654 108.17452323333121 H 0.0 **** 0.06
31950 H 130.73440576767868 38.73652539128658 109.60870850847958 H 0.0 **** 0.06
31951 C 52.349252709068736 95.55310098652667 40.67202692986983 C 0.0 **** -0.24
31952 H 52.30298604927842 96.55934706701649 41.088637208124936 H 0.0 **** 0.06
31953 H 52.65726558639986 94.8517386234186 41.44758273486933 H 0.0 **** 0.06
31954 H 53.070799449420406 95.531849810203 39.85461599576519 H 0.0 **** 0.06
31955 H 51.36561532261669 95.27095157675959 40.29597491323656 H 0.0 **** 0.06
31956 C 67.49863761307174 125.25246448769327 40.18379944819148 C 0.0 **** -0.24
31957 H 66.56695776273556 124.71893749812523 39.99280324296231 H 0.0 **** 0.06
31958 H 68.16694048914661 125.13475769263833 39.33056660214052 H 0.0 **** 0.06
31959 H 67.9730461058047 124.84637061043388 41.07736436233117 H 0.0 **** 0.06
31960 H 67.28561636452895 126.31106316169482 40.33511609167505 H 0.0 **** 0.06
31961 C 56.07586572600468 63.3714405025804 51.69449860872453 C 0.0 **** -0.24
31962 H 56.653889085724984 62.45518217896435 51.814455156192494 H 0.0 **** 0.06
31963 H 55.0418488836678 63.119894342577396 51.45836601688798 H 0.0 **** 0.06
31964 H 56.50068586940955 63.96539151632308 50.88495802453468 H 0.0 **** 0.06
31965 H 56.10800784727206 63.945120690793544 52.620392659030216 H 0.0 **** 0.06
31966 C 50.18744325682823 84.53766642302583 49.919761001587645 C 0.0 **** -0.24
31967 H 50.60755911594546 85.51003901385158 49.66040380187944 H 0.0 **** 0.06
31968 H 50.55390675190202 84.2326982799506 50.89981397052232 H 0.0 **** 0.06
31969 H 50.48847962374893 83.80218825888045 49.173279319201 H 0.0 **** 0.06
31970 H 49.10036669394967 84.60724973352585 49.94301100718339 H 0.0 **** 0.06
31971 C 110.25118491821188 53.830601751451155 126.3905205777817 C 0.0 **** -0.24
31972 H 110.61564784289017 54.52370286106341 127.14944321688539 H 0.0 **** 0.06
31973 H 110.68391492842709 54.089581876978315 125.42424322340815 H 0.0 **** 0.06
31974 H 109.16522307002019 53.89443066204794 126.33249840990845 H 0.0 **** 0.06
31975 H 110.54231752766539 52.81442244541881 126.6577252700938 H 0.0 **** 0.06
31976 C 70.56108180181938 102.85560506166135 5.219372523980162 C 0.0 **** -0.24
31977 H 70.9331390726437 102.21432814361464 4.4199425856116505 H 0.0 **** 0.06
31978 H 70.88749569205999 102.46262666943912 6.182186029768143 H 0.0 **** 0.06
31979 H 69.47187979946578 102.88015542241047 5.187043431871956 H 0.0 **** 0.06
31980 H 70.95191185729303 103.86471673926397 5.086164353382355 H 0.0 **** 0.06
31981 C 9.48710432494073 54.713168778939306 80.7248035677257 C 0.0 **** -0.24
31982 H 9.106977715196422 55.71551819926485 80.92014497164524 H 0.0 **** 0.06
31983 H 9.849978264868241 54.27479445579935 81.65471397951154 H 0.0 **** 0.06
31984 H 10.304312085146194 54.7682321142825 80.00531665296563 H 0.0 **** 0.06
31985 H 8.687149234552123 54.09413034641052 80.31903866678039 H 0.0 **** 0.06
31986 C 139.6652318295799 45.84530891012061 55.59151901170182 C 0.0 **** -0.24
31987 H 139.45990117856917 44.87805709553845 55.13335296349075 H 0.0 **** 0.06
31988 H 140.4284849173191 45.72643940154022 56.36217572475675 H 0.0 **** 0.06
31989 H 138.75237025705337 46.23492158337089 56.0408891983073 H 0.0 **** 0.06
31990 H 140.02185676787894 46.53916644785973 54.83072124758428 H 0.0 **** 0.06
31991 C 92.52694206755669 124.30109325717837 1.9769540609721616 C 0.0 **** -0.24
31992 H 92.80317489217168 123.74337896451232 2.872271394380231 H 0.0 **** 0.06
31993 H 91.60501519899623 123.89048574931431 1.5631784064773306 H 0.0 **** 0.06
31994 H 93.32431189512354 124.21942606552477 1.238183642803257 H 0.0 **** 0.06
31995 H 92.37487736156342 125.34954300548159 2.2348753308849787 H 0.0 **** 0.06
31996 C 26.972614295423256 83.58112653267159 108.92833434043763 C 0.0 **** -0.24
31997 H 26.290476801226873 82.98062820430602 108.32745827730355 H 0.0 **** 0.06
31998 H 27.994355773465614 83.42773257611736 108.58008935298375 H 0.0 **** 0.06
31999 H 26.89640991831773 83.27986535118436 109.97345994181165 H 0.0 **** 0.06
32000 H 26.71020424808799 84.63423964046382 108.83429399484567 H 0.0 **** 0.06
32001 C 142.17076194483633 7.071622398907493 12.405796464812965 C 0.0 **** -0.24
32002 H 142.32972301234776 7.310253245023375 13.456933730379376 H 0.0 **** 0.06
32003 H 141.87379549306934 7.972782245746089 11.8694386112453 H 0.0 **** 0.06
32004 H 141.38467328195787 6.320786721259765 12.318897987137746 H 0.0 **** 0.06
32005 H 143.09413055825007 6.681105975834839 11.977726103055716 H 0.0 **** 0.06
32006 C 16.97521667689753 119.9343932286831 31.197289414800906 C 0.0 **** -0.24
32007 H 17.72584490687359 119.18011428773148 30.964501165348494 H 0.0 **** 0.06
32008 H 16.397994925074727 120.1606375529965 30.300564558359497 H 0.0 **** 0.06
32009 H 17.467270005654882 120.84006176697271 31.551275145333136 H 0.0 **** 0.06
32010 H 16.308604795678576 119.55515370030572 31.972508688625737 H 0.0 **** 0.06
32011 C 13.86091463319714 68.37285248465537 60.54043189634581 C 0.0 **** -0.24
32012 H 14.209008159482337 69.21335401926294 61.139230593219594 H 0.0 **** 0.06
32013 H 12.863943329000946 68.07972785664083 60.87056232598698 H 0.0 **** 0.06
32014 H 14.545620198879483 67.5324234672203 60.661499338510794 H 0.0 **** 0.06
32015 H 13.82506713301153 68.66472136511575 59.49170012343234 H 0.0 **** 0.06
32016 C 120.91831679462899 75.20291221923564 95.31341655860639 C 0.0 **** -0.24
32017 H 121.47907729538099 75.29824506646395 94.3829262254566 H 0.0 **** 0.06
32018 H 120.59542878372787 74.16944790856797 95.4392130157053 H 0.0 **** 0.06
32019 H 120.04613004183022 75.85515909145845 95.27981379444533 H 0.0 **** 0.06
32020 H 121.55444538721588 75.49008229525694 96.15147665032724 H 0.0 **** 0.06
32021 C 39.87059966789668 71.78310192828371 115.79261006790499 C 0.0 **** -0.24
32022 H 40.951331220457355 71.9225448472592 115.77238957472618 H 0.0 **** 0.06
32023 H 39.637811843382195 70.72617758581458 115.66187877415861 H 0.0 **** 0.06
32024 H 39.41541342648177 72.35808060567136 114.98599496973127 H 0.0 **** 0.06
32025 H 39.477330553432594 72.1262977418942 116.74966907695925 H 0.0 **** 0.06
32026 C 9.80133476004363 117.72746689631013 68.78680440037382 C 0.0 **** -0.24
32027 H 9.433790323179835 117.14776353185987 67.93994963031155 H 0.0 **** 0.06
32028 H 10.153497867606518 118.69816774913518 68.43547981177662 H 0.0 **** 0.06
32029 H 10.622572102551715 117.19290423225196 69.26378329317463 H 0.0 **** 0.06
32030 H 8.994636229194498 117.8712909170621 69.50513719184524 H 0.0 **** 0.06
32031 C 125.50483462796711 121.89594820725635 24.40480241708798 C 0.0 **** -0.24
32032 H 124.57132683403432 122.24665306130301 23.96587058149254 H 0.0 **** 0.06
32033 H 125.31330978780176 121.00465038951349 25.002655534865255 H 0.0 **** 0.06
32034 H 125.92342596132954 122.67702675996905 25.040179097504904 H 0.0 **** 0.06
32035 H 126.21231718921047 121.65614039839194 23.611711318883465 H 0.0 **** 0.06
32036 C 101.28596778374991 50.05720255100667 28.812139038215378 C 0.0 **** -0.24
32037 H 102.07057955476313 49.31091773278044 28.923692163759938 H 0.0 **** 0.06
32038 H 101.1723171475843 50.311249403767164 27.75772323977114 H 0.0 **** 0.06
32039 H 101.55351362016836 50.95214562449516 29.374378346277524 H 0.0 **** 0.06
32040 H 100.34635781589132 49.65721748890715 29.193383001013657 H 0.0 **** 0.06
32041 C 26.33065433697203 23.952323349875655 42.67691523525029 C 0.0 **** -0.24
32042 H 25.557228902345855 24.69830070468589 42.4914190837527 H 0.0 **** 0.06
32043 H 26.01458189247012 22.992851784494235 42.26543316292518 H 0.0 **** 0.06
32044 H 26.488532244191845 23.852607014789157 43.75073463766303 H 0.0 **** 0.06
32045 H 27.25887018459582 24.264918685379882 42.1998897240573 H 0.0 **** 0.06
32046 C 133.12893285377928 37.764522047522604 63.003035959205306 C 0.0 **** -0.24
32047 H 133.42572710890892 38.58894601125395 63.65142719731179 H 0.0 **** 0.06
32048 H 132.06847319423642 37.85154338257588 62.7672871995818 H 0.0 **** 0.06
32049 H 133.31263542579023 36.81833530693915 63.51217436801534 H 0.0 **** 0.06
32050 H 133.71129451820042 37.799259355440284 62.08175090449288 H 0.0 **** 0.06
32051 C 22.786022465637167 37.67002082406702 13.39070444487271 C 0.0 **** -0.24
32052 H 22.198217817715253 36.87188662841506 12.939652002947554 H 0.0 **** 0.06
32053 H 23.287873514205266 38.23956317354441 12.608320303424847 H 0.0 **** 0.06
32054 H 23.529680509150978 37.23994410030151 14.062135493792795 H 0.0 **** 0.06
32055 H 22.12732183990704 38.33133003560966 13.955166653042852 H 0.0 **** 0.06
32056 C 53.38319965408914 90.27356229047214 129.21788103815635 C 0.0 **** -0.24
32057 H 53.44479489262153 91.35318032625935 129.34942858628412 H 0.0 **** 0.06
32058 H 52.37821827025607 90.00350517990935 128.89139285579452 H 0.0 **** 0.06
32059 H 53.602342102317664 89.7790793544004 130.16439259310746 H 0.0 **** 0.06
32060 H 54.10712087408666 89.95583138538615 128.4672366135497 H 0.0 **** 0.06
32061 C 45.69943126643102 131.8677638443818 36.649530339374536 C 0.0 **** -0.24
32062 H 45.70222986556013 130.78415068224749 36.53810540824915 H 0.0 **** 0.06
32063 H 45.54490990060816 132.12458427354176 37.69731051312712 H 0.0 **** 0.06
32064 H 44.89574692556886 132.29293733939895 36.048305025520136 H 0.0 **** 0.06
32065 H 46.65570486647698 132.27014664511054 36.313584169202215 H 0.0 **** 0.06
32066 C 93.90844771187483 71.53896829563735 26.98816236346832 C 0.0 **** -0.24
32067 H 93.76135159355778 71.8647522109136 28.017735797212765 H 0.0 **** 0.06
32068 H 93.07256577622223 70.90777985107268 26.684571381548523 H 0.0 **** 0.06
32069 H 94.8370801497336 70.97238564210456 26.916087340922928 H 0.0 **** 0.06
32070 H 93.96274917104535 72.40982095216663 26.33509813500754 H 0.0 **** 0.06
32071 C 12.068284594980149 62.629815785523405 86.71954496626105 C 0.0 **** -0.24
32072 H 11.340970247174177 63.409037171540774 86.94597981065084 H 0.0 **** 0.06
32073 H 12.036809177113277 62.402002194398364 85.65421161464141 H 0.0 **** 0.06
32074 H 11.828050203941494 61.73244488735553 87.29025840666112 H 0.0 **** 0.06
32075 H 13.066845611125025 62.97490828181158 86.98874375477497 H 0.0 **** 0.06
32076 C 112.52421180573242 135.74512866216685 110.10173378364745 C 0.0 **** -0.24
32077 H 112.95500078947902 134.79360494112407 110.4139666648121 H 0.0 **** 0.06
32078 H 113.25234834614815 136.29455147258454 109.50561582563724 H 0.0 **** 0.06
32079 H 112.25859376834882 136.32974421233803 110.98201133900157 H 0.0 **** 0.06
32080 H 111.63058961569601 135.56078380716133 109.50459870971686 H 0.0 **** 0.06
32081 C 135.0593246840722 30.859945971934224 53.0022403836046 C 0.0 **** -0.24
32082 H 135.86456738761447 30.531804026081232 53.65919466650453 H 0.0 **** 0.06
32083 H 134.2198407247783 30.169027231373832 53.08379343916209 H 0.0 **** 0.06
32084 H 135.41611623816814 30.879390977387942 51.972338647000186 H 0.0 **** 0.06
32085 H 134.73754813030467 31.859213783635028 53.294164262620825 H 0.0 **** 0.06
32086 C 54.14155828174779 13.905833763200064 128.31871504958264 C 0.0 **** -0.24
32087 H 54.49549838631026 14.93690303224193 128.30864143595397 H 0.0 **** 0.06
32088 H 53.75899623531359 13.644097632925735 127.33248873228447 H 0.0 **** 0.06
32089 H 53.346187761277065 13.80347859292911 129.05742072857382 H 0.0 **** 0.06
32090 H 54.96584802896194 13.241395942030778 128.57751744998478 H 0.0 **** 0.06
32091 C 91.09105335798472 82.51499478611758 64.40965264012033 C 0.0 **** -0.24
32092 H 90.25005797426434 82.19679677557093 63.79354007918096 H 0.0 **** 0.06
32093 H 91.83055837049142 83.01456678451677 63.784051298332656 H 0.0 **** 0.06
32094 H 91.54448283420129 81.64430205398594 64.88348148873689 H 0.0 **** 0.06
32095 H 90.73830403255522 83.20424013225205 65.17695614521739 H 0.0 **** 0.06
32096 C 124.96164476752175 135.62271035152568 144.56045781575 C 0.0 **** -0.24
32097 H 124.05388755087613 135.82622142445817 143.99290874192462 H 0.0 **** 0.06
32098 H 124.69475251224623 135.26314051415082 145.5540955470161 H 0.0 **** 0.06
32099 H 125.54696131925496 136.53822082508717 144.64887740659003 H 0.0 **** 0.06
32100 H 125.55021251174776 134.86434555675115 144.04483904777064 H 0.0 **** 0.06
32101 C 42.51265478101273 17.066546779571297 44.825671921589276 C 0.0 **** -0.24
32102 H 43.088397240406934 16.727805737224912 43.96352571295121 H 0.0 **** 0.06
32103 H 41.86167884664363 17.888864859939645 44.52667148728621 H 0.0 **** 0.06
32104 H 43.19355513349298 17.407095988401295 45.605514743932176 H 0.0 **** 0.06
32105 H 41.90869720850763 16.2426856080873 45.20555862191189 H 0.0 **** 0.06
32106 C 118.10442944792212 129.29978936101423 7.540438445045368 C 0.0 **** -0.24
32107 H 117.37273865774804 129.95712435462775 8.009813748850053 H 0.0 **** 0.06
32108 H 118.65729465945427 129.8540210914817 6.782437711225317 H 0.0 **** 0.06
32109 H 117.59039888062577 128.45898393132904 7.074549287126619 H 0.0 **** 0.06
32110 H 118.79695203336857 128.9286745064073 8.296281121809354 H 0.0 **** 0.06
32111 C 57.36098976846402 42.312332115852854 132.35988930937208 C 0.0 **** -0.24
32112 H 56.969768701988784 43.27671863473455 132.68414017138343 H 0.0 **** 0.06
32113 H 57.133408139201265 41.55704074046052 133.11140869720836 H 0.0 **** 0.06
32114 H 58.440356733091306 42.3837635830664 132.23105477281467 H 0.0 **** 0.06
32115 H 56.899227771768494 42.03441084413571 131.41207152465097 H 0.0 **** 0.06
32116 C 130.9203706902449 110.59835179267805 1.6291321667553689 C 0.0 **** -0.24
32117 H 130.1978176593275 110.15470067871343 2.3148994380254067 H 0.0 **** 0.06
32118 H 130.64161833965326 111.63339616273493 1.4283730353656665 H 0.0 **** 0.06
32119 H 130.9272774947411 110.03607122612777 0.6956388696451654 H 0.0 **** 0.06
32120 H 131.91267205731137 110.56873524783111 2.078778402089597 H 0.0 **** 0.06
32121 C 121.5579100484211 19.404519855993257 62.27651322801526 C 0.0 **** -0.24
32122 H 120.65828202109309 19.69911611995149 62.818397369102314 H 0.0 **** 0.06
32123 H 122.42979784810849 19.8573842173965 62.74890442773324 H 0.0 **** 0.06
32124 H 121.48702946024666 19.743836877190084 61.24309859780885 H 0.0 **** 0.06
32125 H 121.6549776821649 18.319388219808083 62.296589820674825 H 0.0 **** 0.06
32126 C 16.543272511801717 35.312815150249065 6.145219891724139 C 0.0 **** -0.24
32127 H 15.49093388454591 35.3859654564269 6.419105504112391 H 0.0 **** 0.06
32128 H 16.681330949233626 35.68856104951578 5.1316545214761256 H 0.0 **** 0.06
32129 H 16.85921315817484 34.270285589128235 6.192880734705472 H 0.0 **** 0.06
32130 H 17.141163745714152 35.90555663200399 6.837298999191312 H 0.0 **** 0.06
32131 C 16.062242772442232 109.10869889495066 5.156786972910851 C 0.0 **** -0.24
32132 H 15.983513357657529 108.98318438541978 4.077203416534246 H 0.0 **** 0.06
32133 H 16.065640093621198 110.17109246287285 5.400149363942887 H 0.0 **** 0.06
32134 H 16.9878301026487 108.65124779797347 5.508843166894081 H 0.0 **** 0.06
32135 H 15.212242175361354 108.62683591730487 5.640873734564224 H 0.0 **** 0.06
32136 C 105.1745931753522 113.13411267178996 71.51660558437038 C 0.0 **** -0.24
32137 H 105.62549713703838 112.77006993583107 70.59392451273885 H 0.0 **** 0.06
32138 H 104.74670968792769 112.2954580624607 72.06738424887453 H 0.0 **** 0.06
32139 H 104.38915925256 113.8511570032701 71.2779198644838 H 0.0 **** 0.06
32140 H 105.93634281101195 113.61927472429817 72.12662948345445 H 0.0 **** 0.06
32141 C 104.36219481247194 109.28255866341206 41.134893299568205 C 0.0 **** -0.24
32142 H 103.59455331430358 109.90416674281474 41.59345379527582 H 0.0 **** 0.06
32143 H 103.97502170567473 108.84787108848232 40.21247600559593 H 0.0 **** 0.06
32144 H 104.64271206056398 108.48453527403225 41.82293594088662 H 0.0 **** 0.06
32145 H 105.23757935341699 109.89187036006402 40.909926499511414 H 0.0 **** 0.06
32146 C 83.296325417834 104.59604995555713 109.8126738950523 C 0.0 **** -0.24
32147 H 82.67694085253949 104.50495121772116 110.7044051515369 H 0.0 **** 0.06
32148 H 84.00088214562638 105.41893154788607 109.9425187981176 H 0.0 **** 0.06
32149 H 82.66226021727583 104.79356285928253 108.94852642062513 H 0.0 **** 0.06
32150 H 83.84659625731307 103.66774286554175 109.65559781378856 H 0.0 **** 0.06
32151 C 120.50552006715039 121.60851279677952 95.37523679936614 C 0.0 **** -0.24
32152 H 121.56702221359278 121.40230316342978 95.23708945277414 H 0.0 **** 0.06
32153 H 120.31607455206988 121.85595766148823 96.41949122698824 H 0.0 **** 0.06
32154 H 119.92573272380896 120.72707328206876 95.09921331090725 H 0.0 **** 0.06
32155 H 120.2145539439306 122.447031112663 94.74261160184899 H 0.0 **** 0.06
32156 C 2.1422515454574977 123.14471917722284 0.05005770928382347 C 0.0 **** -0.24
32157 H 2.991127915034525 123.40340983094767 -0.5828474576527825 H 0.0 **** 0.06
32158 H 1.5026784220798106 124.01886865976563 0.17455198269056282 H 0.0 **** 0.06
32159 H 2.502398047333628 122.81544170654 1.0247806164643478 H 0.0 **** 0.06
32160 H 1.5730074939833116 122.34081498683788 -0.41761118943334097 H 0.0 **** 0.06
32161 C 12.2294624077268 94.56809986891435 29.958836501806204 C 0.0 **** -0.24
32162 H 12.404383542559628 95.42114490259607 29.30244888132507 H 0.0 **** 0.06
32163 H 13.131938819871976 93.95910053714721 30.011210495130634 H 0.0 **** 0.06
32164 H 11.409095891176406 93.96888022178717 29.564399600003064 H 0.0 **** 0.06
32165 H 11.972410526675134 94.92390249032476 30.95602037420091 H 0.0 **** 0.06
32166 C 33.73916061603426 3.6903226912836438 94.85930599127896 C 0.0 **** -0.24
32167 H 34.67798610283844 3.403898243736851 94.38373927373078 H 0.0 **** 0.06
32168 H 33.09798904035265 2.81399991158181 94.952549097048 H 0.0 **** 0.06
32169 H 33.239609564904434 4.443862054917581 94.2512229138433 H 0.0 **** 0.06
32170 H 33.94360922452493 4.098213696463198 95.84884303368024 H 0.0 **** 0.06
32171 C 141.04354489491192 107.93647736886147 94.61881455832577 C 0.0 **** -0.24
32172 H 140.83840108819825 106.97170299006898 94.15609621627259 H 0.0 **** 0.06
32173 H 142.01689252304985 108.2994523476974 94.28652624954302 H 0.0 **** 0.06
32174 H 141.04778563394984 107.82678088100893 95.70262013647867 H 0.0 **** 0.06
32175 H 140.27164519616792 108.64936363275221 94.32835123968782 H 0.0 **** 0.06
32176 C 101.60369782367407 34.70322400945783 0.30741952308608234 C 0.0 **** -0.24
32177 H 102.13903779039262 33.9302464889891 -0.24272019522328492 H 0.0 **** 0.06
32178 H 102.07712593418857 35.66926112466682 0.13018509648904342 H 0.0 **** 0.06
32179 H 101.63023063024674 34.47569521357812 1.3736650896750007 H 0.0 **** 0.06
32180 H 100.56839693986835 34.73769321059717 -0.03145189859662878 H 0.0 **** 0.06
32181 C 102.35683240041537 125.35296144781111 143.85731270507242 C 0.0 **** -0.24
32182 H 103.43997894209564 125.46168170221986 143.8117459596046 H 0.0 **** 0.06
32183 H 101.92478242579168 125.60482990166341 142.88877927745818 H 0.0 **** 0.06
32184 H 101.95624939603903 126.02221885930507 144.6189653076323 H 0.0 **** 0.06
32185 H 102.10532812455136 124.32338741468632 144.1111547601943 H 0.0 **** 0.06
32186 C 116.69028749105553 108.71691402264737 71.89150052094371 C 0.0 **** -0.24
32187 H 117.10514044141064 108.55008330625766 70.89797528666949 H 0.0 **** 0.06
32188 H 117.43514439609095 109.2068534127694 72.5190421576897 H 0.0 **** 0.06
32189 H 116.41397958444793 107.7597640084161 72.33545519417248 H 0.0 **** 0.06
32190 H 115.8058947214302 109.34939715262298 71.81479058458278 H 0.0 **** 0.06
32191 C 80.30970188367057 40.315833453885546 76.26195345029646 C 0.0 **** -0.24
32192 H 80.71686890479315 40.29257843110088 77.27234301793615 H 0.0 **** 0.06
32193 H 79.83140316275183 39.36133200323451 76.04010157952061 H 0.0 **** 0.06
32194 H 81.11625999212178 40.492346251263086 75.55005446621493 H 0.0 **** 0.06
32195 H 79.57511063577567 41.11770110813171 76.18435909893725 H 0.0 **** 0.06
32196 C 37.58594743214178 109.04781697911889 112.16390530463416 C 0.0 **** -0.24
32197 H 37.6771470696323 110.03462500764513 111.71019456947103 H 0.0 **** 0.06
32198 H 36.53061296476196 108.81239633703748 112.31096412492762 H 0.0 **** 0.06
32199 H 38.097583664201096 109.04228238821233 113.12619404386292 H 0.0 **** 0.06
32200 H 38.036628610513645 108.30353650726781 111.50779408926742 H 0.0 **** 0.06
32201 C 49.19959315710558 137.25986555678233 45.315278026840545 C 0.0 **** -0.24
32202 H 48.79149138215837 137.8799260610496 46.11354290465812 H 0.0 **** 0.06
32203 H 49.908600782527984 137.8437970869888 44.72792798182708 H 0.0 **** 0.06
32204 H 48.38887293668731 136.91611564711027 44.67199918382228 H 0.0 **** 0.06
32205 H 49.708798506715866 136.39857290958415 45.749519725883474 H 0.0 **** 0.06
32206 C 114.02952058615482 73.13691111387207 136.7203028470991 C 0.0 **** -0.24
32207 H 114.44969287016993 72.19859505679133 136.35837589378008 H 0.0 **** 0.06
32208 H 114.05139464952306 73.87766885154775 135.92054011526147 H 0.0 **** 0.06
32209 H 114.61769217059917 73.49648108162162 137.56548009814205 H 0.0 **** 0.06
32210 H 112.99930265432731 72.9748994655275 137.03681528121288 H 0.0 **** 0.06
32211 C 87.03669046021636 27.101697904774625 110.84621611896277 C 0.0 **** -0.24
32212 H 87.31448838666026 26.916333942883938 109.80878303829506 H 0.0 **** 0.06
32213 H 87.197398981677 26.19621554326193 111.43192286303518 H 0.0 **** 0.06
32214 H 85.98500553354866 27.384167176354083 110.89475296791382 H 0.0 **** 0.06
32215 H 87.64860711496284 27.909245169829575 111.24747700188819 H 0.0 **** 0.06
32216 C 108.56995209451874 141.8229831394399 23.673167540037127 C 0.0 **** -0.24
32217 H 108.93873029969008 142.83393893538548 23.84143766110884 H 0.0 **** 0.06
32218 H 108.33174346328913 141.35946411547005 24.63105673216205 H 0.0 **** 0.06
32219 H 109.33637325027853 141.236562730759 23.165985490745015 H 0.0 **** 0.06
32220 H 107.67372217991279 141.8613559704872 23.054409640032247 H 0.0 **** 0.06
32221 C 122.32039750701598 84.5514679594168 0.5436927325569059 C 0.0 **** -0.24
32222 H 121.4176036998269 84.01099871963028 0.2591699061772488 H 0.0 **** 0.06
32223 H 122.88039633017476 84.82119557275784 -0.3526031442509634 H 0.0 **** 0.06
32224 H 122.93750855517278 83.91745468926311 1.180453308400672 H 0.0 **** 0.06
32225 H 122.04667544604963 85.45533605650579 1.0868230483686716 H 0.0 **** 0.06
32226 C 48.16968587934568 126.43961950207154 28.658008849509343 C 0.0 **** -0.24
32227 H 48.77760606580094 127.08559344569406 28.024274186187355 H 0.0 **** 0.06
32228 H 47.848435609955544 125.56826838214485 28.086269012918564 H 0.0 **** 0.06
32229 H 47.2948144891451 126.99058618692749 29.00356734110818 H 0.0 **** 0.06
32230 H 48.75779915998467 126.11518292317064 29.516010910668058 H 0.0 **** 0.06
32231 C 3.4983453186985116 130.7297847449527 73.11655988739608 C 0.0 **** -0.24
32232 H 2.637644032993876 131.29840041593886 72.76474828559384 H 0.0 **** 0.06
32233 H 3.1555835109649593 129.8313732302394 73.62962419077053 H 0.0 **** 0.06
32234 H 4.081149753392651 131.34214162878385 73.80419344318443 H 0.0 **** 0.06
32235 H 4.119100292048074 130.44739782350933 72.26523218204682 H 0.0 **** 0.06
32236 C 87.2596166849669 110.01269663983703 33.90890451255933 C 0.0 **** -0.24
32237 H 87.36729287658441 111.09178727030763 33.791396124484436 H 0.0 **** 0.06
32238 H 88.13274430794682 109.61630724258424 34.42778843310663 H 0.0 **** 0.06
32239 H 87.17642936409786 109.54681835767809 32.927869285052225 H 0.0 **** 0.06
32240 H 86.36267138440277 109.7985789203521 34.49106057163306 H 0.0 **** 0.06
32241 C 114.47746942850428 114.64093467992947 126.7153505278242 C 0.0 **** -0.24
32242 H 113.67708141820758 114.02230924353918 127.11976917865942 H 0.0 **** 0.06
32243 H 114.37402698211226 114.70591283105776 125.63221000269533 H 0.0 **** 0.06
32244 H 115.44140497615514 114.19444245625286 126.96220050247106 H 0.0 **** 0.06
32245 H 114.41818571138494 115.63925141287231 127.14716758763944 H 0.0 **** 0.06
32246 C 48.03879542516188 38.57350239925333 101.55972712175583 C 0.0 **** -0.24
32247 H 47.604786850197 39.47577333506383 101.13053072274354 H 0.0 **** 0.06
32248 H 47.265538360652016 37.810893041635396 101.66055095097394 H 0.0 **** 0.06
32249 H 48.45427549445421 38.801604219489846 102.54089567761469 H 0.0 **** 0.06
32250 H 48.82998105012075 38.20506389166076 100.90736048057374 H 0.0 **** 0.06
32251 C 10.306647122392036 77.62061161374804 31.618106553592405 C 0.0 **** -0.24
32252 H 9.83868054325444 76.6760593298145 31.896855892262607 H 0.0 **** 0.06
32253 H 11.059545339244124 77.44026092833259 30.851644717053645 H 0.0 **** 0.06
32254 H 10.777621619243973 78.06434699466898 32.494981579313055 H 0.0 **** 0.06
32255 H 9.547452717370533 78.29982250713712 31.230480048049465 H 0.0 **** 0.06
32256 C 89.30284943142766 128.56815665404224 101.71640371915794 C 0.0 **** -0.24
32257 H 89.31398479170497 127.58786664067883 102.19315669739835 H 0.0 **** 0.06
32258 H 90.31364506369032 128.83166405829996 101.40530096033483 H 0.0 **** 0.06
32259 H 88.93397181983352 129.31124716446197 102.42262793961551 H 0.0 **** 0.06
32260 H 88.64970928637746 128.539616957633 100.84442073872705 H 0.0 **** 0.06
32261 C 43.53116856760187 71.16975466222738 61.20501024367165 C 0.0 **** -0.24
32262 H 44.62060133944868 71.18042623091247 61.19338241283556 H 0.0 **** 0.06
32263 H 43.16610158580406 72.02937139767613 61.768209249698685 H 0.0 **** 0.06
32264 H 43.18215178184124 70.2511078533201 61.67625456117432 H 0.0 **** 0.06
32265 H 43.156909850175026 71.21943634930687 60.18244090985036 H 0.0 **** 0.06
32266 C 72.19953578260385 138.10853176303743 17.10857154413116 C 0.0 **** -0.24
32267 H 72.73700744554094 138.94440529778723 16.659652191727176 H 0.0 **** 0.06
32268 H 71.4841437696328 137.70895766919216 16.389248430849904 H 0.0 **** 0.06
32269 H 71.67000525931013 138.45283028544134 17.996532026864827 H 0.0 **** 0.06
32270 H 72.908734933468 137.32917280652939 17.387666661506607 H 0.0 **** 0.06
32271 C 123.66300082714773 105.90707434178204 91.45624969581286 C 0.0 **** -0.24
32272 H 124.59846600225794 105.84441445247792 90.90019614996052 H 0.0 **** 0.06
32273 H 122.82414248320157 105.7749827048254 90.77154650802615 H 0.0 **** 0.06
32274 H 123.5912386376751 106.88274569983462 91.93631996318612 H 0.0 **** 0.06
32275 H 123.63944153734565 105.12542437503072 92.21525836832726 H 0.0 **** 0.06
32276 C 118.67423742389873 45.861284349042904 85.05740086415179 C 0.0 **** -0.24
32277 H 118.10114647793652 46.78843690450995 85.03186992327751 H 0.0 **** 0.06
32278 H 119.23746076396306 45.75628496747859 84.13051281083814 H 0.0 **** 0.06
32279 H 117.99314424217947 45.01684023498184 85.16566507038118 H 0.0 **** 0.06
32280 H 119.36316917601964 45.88314334316793 85.90239031131564 H 0.0 **** 0.06
32281 C 116.18738180242873 102.78631869471394 37.29909405834502 C 0.0 **** -0.24
32282 H 115.71146630147685 101.9499748415036 36.78684089509353 H 0.0 **** 0.06
32283 H 115.47112501993918 103.60144476260467 37.40526674168261 H 0.0 **** 0.06
32284 H 117.04394178844153 103.12881546924291 36.71783862466512 H 0.0 **** 0.06
32285 H 116.52283205574737 102.46574735203228 38.28521627285676 H 0.0 **** 0.06
32286 C 52.563537834345425 47.29193154414662 42.63802878895331 C 0.0 **** -0.24
32287 H 52.80007075963533 47.994565429453175 41.84016250113666 H 0.0 **** 0.06
32288 H 51.79188136086066 47.718283987695315 43.280062149089474 H 0.0 **** 0.06
32289 H 53.45919417775099 47.09665890925211 43.22803660567271 H 0.0 **** 0.06
32290 H 52.202663762066436 46.35863528620621 42.206805114964084 H 0.0 **** 0.06
32291 C 73.25806674730974 144.57178560182922 102.37693464474516 C 0.0 **** -0.24
32292 H 72.4559052388778 144.84267923074836 103.06283435883621 H 0.0 **** 0.06
32293 H 73.64031915112949 143.5842948921667 102.63795217394913 H 0.0 **** 0.06
32294 H 74.0616660356492 145.30383893309084 102.4498177815021 H 0.0 **** 0.06
32295 H 72.87282797808871 144.55446510694202 101.35677826189408 H 0.0 **** 0.06
32296 C 73.60713136075566 32.26643034720422 118.79264370279992 C 0.0 **** -0.24
32297 H 73.16057403858377 32.41872594635049 117.80946235880617 H 0.0 **** 0.06
32298 H 74.09099462595105 33.18728721528788 119.11738951396569 H 0.0 **** 0.06
32299 H 74.3475915436016 31.468066917257204 118.73484675447628 H 0.0 **** 0.06
32300 H 72.83022403549217 31.991628581726218 119.50552017088626 H 0.0 **** 0.06
32301 C 144.43833332275202 141.9438187371096 11.08276390991756 C 0.0 **** -0.24
32302 H 144.62163661100237 141.04654002326646 11.673160111266611 H 0.0 **** 0.06
32303 H 145.27458543130808 142.10894186407234 10.402645018956207 H 0.0 **** 0.06
32304 H 144.33491128609901 142.80134340787555 11.747207431054221 H 0.0 **** 0.06
32305 H 143.52083673525837 141.81795981041256 10.50709344884163 H 0.0 **** 0.06
32306 C 134.65208826725154 70.76118931336151 43.69042896915127 C 0.0 **** -0.24
32307 H 133.86014034470392 70.36928217111803 44.32829584896183 H 0.0 **** 0.06
32308 H 134.2103496474432 71.31338233968955 42.86119032333218 H 0.0 **** 0.06
32309 H 135.24661712963842 69.93395266153476 43.301823924776926 H 0.0 **** 0.06
32310 H 135.29079369760476 71.42565511070262 44.27167886313168 H 0.0 **** 0.06
32311 C 7.1897793239144505 65.1402830210119 0.6603213665002521 C 0.0 **** -0.24
32312 H 7.092801505361251 64.45726253695744 1.5037401126973116 H 0.0 **** 0.06
32313 H 6.224452420003502 65.6029679260098 0.45447542267930174 H 0.0 **** 0.06
32314 H 7.5231048145736 64.58938935534769 -0.21829181064918401 H 0.0 **** 0.06
32315 H 7.919430446017259 65.91375519508944 0.9020815283400587 H 0.0 **** 0.06
32316 C 16.038000751980917 113.39823247035118 50.767937873198974 C 0.0 **** -0.24
32317 H 15.915698818222324 112.69325301653883 51.58994278996434 H 0.0 **** 0.06
32318 H 17.096028880952417 113.48715793794572 50.52050777070022 H 0.0 **** 0.06
32319 H 15.651117790184514 114.37279234383568 51.06502962014281 H 0.0 **** 0.06
32320 H 15.489591931672408 113.03956526820353 49.89715748716449 H 0.0 **** 0.06
32321 C 121.65507470716798 89.12580013609309 2.250362757071798 C 0.0 **** -0.24
32322 H 121.3518072642324 89.41489303701653 1.243961712938976 H 0.0 **** 0.06
32323 H 121.07542813079462 89.69126926793135 2.9803911328181414 H 0.0 **** 0.06
32324 H 122.71579838294772 89.33799068506445 2.3853826206175803 H 0.0 **** 0.06
32325 H 121.47702326986555 88.05985689120357 2.3911802493076806 H 0.0 **** 0.06
32326 C 34.30772113021396 74.05914611467213 9.40219850904468 C 0.0 **** -0.24
32327 H 33.87827520609096 74.03324393675628 8.400087624419076 H 0.0 **** 0.06
32328 H 35.395131588683 74.04761968912537 9.33143474085307 H 0.0 **** 0.06
32329 H 33.96999189659448 73.18860499706597 9.96401520443004 H 0.0 **** 0.06
32330 H 33.98577040675815 74.96720430740127 9.91182478353823 H 0.0 **** 0.06
32331 C 32.87866181715356 36.59004151964177 91.11117284635793 C 0.0 **** -0.24
32332 H 32.12171556115135 37.29357828821995 90.76281049334993 H 0.0 **** 0.06
32333 H 32.82009313018523 35.673599065904114 90.52408781984396 H 0.0 **** 0.06
32334 H 32.704575832332864 36.36050386504638 92.16252884788305 H 0.0 **** 0.06
32335 H 33.867159508559155 37.033811159339194 90.99510953438627 H 0.0 **** 0.06
32336 C 26.61776196476916 80.88953630804329 119.73231680045731 C 0.0 **** -0.24
32337 H 25.76920142666225 81.48244659337252 120.07495413388969 H 0.0 **** 0.06
32338 H 27.18119586544401 81.45832116196124 118.99185209731533 H 0.0 **** 0.06
32339 H 26.256770011014652 79.96521604768722 119.28396575809543 H 0.0 **** 0.06
32340 H 27.26271426096335 80.65562509971957 120.57929730587742 H 0.0 **** 0.06
32341 C 115.11656939480946 102.62070015300475 63.88394053399611 C 0.0 **** -0.24
32342 H 114.59168301987717 102.48438621645806 62.937487271888585 H 0.0 **** 0.06
32343 H 114.42815620583787 102.43711301701433 64.70958452125836 H 0.0 **** 0.06
32344 H 115.49279682643487 103.64158779009972 63.94536710499301 H 0.0 **** 0.06
32345 H 115.94886618572093 101.92098886795009 63.94118523789285 H 0.0 **** 0.06
32346 C 79.25748163678301 24.830011962181374 92.87985659807339 C 0.0 **** -0.24
32347 H 78.28242591339676 24.947703584778992 93.35124588251432 H 0.0 **** 0.06
32348 H 79.12738281517048 24.683770155490436 91.80721986544091 H 0.0 **** 0.06
32349 H 79.76409853537943 23.963903980914097 93.30678425186608 H 0.0 **** 0.06
32350 H 79.85646712794787 25.723656139866165 93.05505465861984 H 0.0 **** 0.06
32351 C 67.25408637788895 59.06553563148741 97.14512067194599 C 0.0 **** -0.24
32352 H 66.4368988150783 59.78206604002092 97.06924242904154 H 0.0 **** 0.06
32353 H 68.17044086404547 59.519739301385044 96.76873475348394 H 0.0 **** 0.06
32354 H 67.01730700681605 58.180406869803704 96.55454001711684 H 0.0 **** 0.06
32355 H 67.39118628919182 58.779991954643094 98.18882196383767 H 0.0 **** 0.06
32356 C 46.20279552448635 69.33765437901835 80.78240534849158 C 0.0 **** -0.24
32357 H 45.15245716932884 69.06499055243206 80.89319681605781 H 0.0 **** 0.06
32358 H 46.64427093254314 68.75995921847526 79.97050778770316 H 0.0 **** 0.06
32359 H 46.732725683248546 69.12418257364465 81.71120121051275 H 0.0 **** 0.06
32360 H 46.27973840949015 70.40170643070812 80.55612681715728 H 0.0 **** 0.06
32361 C 123.98535437817108 33.367403578269446 13.979330944936038 C 0.0 **** -0.24
32362 H 125.01571751677383 33.715976462518526 14.053712856727287 H 0.0 **** 0.06
32363 H 123.65040163024716 33.443468687174615 12.94501298667987 H 0.0 **** 0.06
32364 H 123.34791123047737 33.98129098558351 14.614272126560678 H 0.0 **** 0.06
32365 H 123.92924104662384 32.32816365088091 14.304096379199535 H 0.0 **** 0.06
32366 C 76.4391953433528 86.47185112909379 63.69517604621832 C 0.0 **** -0.24
32367 H 76.8268970887173 86.07852905979581 62.75561072673867 H 0.0 **** 0.06
32368 H 76.51356175097105 85.70658674242065 64.46779040792681 H 0.0 **** 0.06
32369 H 75.39544681230707 86.75871245330859 63.56579097821793 H 0.0 **** 0.06
32370 H 77.02189622289005 87.34455333521902 63.99157523671667 H 0.0 **** 0.06
32371 C 34.50778640068344 107.44605054206377 108.1783229273406 C 0.0 **** -0.24
32372 H 34.445232865726354 107.58373311824553 107.09891222918294 H 0.0 **** 0.06
32373 H 34.80861653093359 108.38316737581388 108.64664137132563 H 0.0 **** 0.06
32374 H 35.24299197633982 106.67424873564923 108.4039987729734 H 0.0 **** 0.06
32375 H 33.53320450195193 107.14406866232062 108.56286810969543 H 0.0 **** 0.06
32376 C 23.942240593999628 8.00777838836106 41.76460723950261 C 0.0 **** -0.24
32377 H 23.474566193440637 8.83755795321278 41.234388947115605 H 0.0 **** 0.06
32378 H 24.078471193523967 8.275836285218418 42.81174334905711 H 0.0 **** 0.06
32379 H 24.911727382440688 7.791941060862456 41.315112489301896 H 0.0 **** 0.06
32380 H 23.304796917584156 7.1264041774363704 41.693544164579265 H 0.0 **** 0.06
32381 C 62.93120148789687 9.399313618114952 66.4845441615989 C 0.0 **** -0.24
32382 H 63.56467077591252 9.0379348818661 67.29520069034145 H 0.0 **** 0.06
32383 H 61.895158380097115 9.122828904755927 66.68349097749575 H 0.0 **** 0.06
32384 H 63.25306719723618 8.949558929927957 65.54470580911881 H 0.0 **** 0.06
32385 H 63.01266938567289 10.483443007070704 66.41589808243776 H 0.0 **** 0.06
32386 C 15.512509930191584 124.85378391186667 123.57280545518987 C 0.0 **** -0.24
32387 H 16.15634304144163 124.06068400592031 123.19196640682227 H 0.0 **** 0.06
32388 H 14.890286721607652 124.46081154370532 124.37760663873391 H 0.0 **** 0.06
32389 H 14.876034249833424 125.2220118326955 122.76778195764078 H 0.0 **** 0.06
32390 H 16.126535445197476 125.66947710396246 123.9530502844805 H 0.0 **** 0.06
32391 C 13.435361669554567 22.62099000463246 137.27206150424786 C 0.0 **** -0.24
32392 H 13.48130598276785 21.577912448567872 137.58435016654857 H 0.0 **** 0.06
32393 H 14.12950274001625 22.784152688708616 136.44686088236114 H 0.0 **** 0.06
32394 H 13.70891304187137 23.26360672319049 138.10867089856708 H 0.0 **** 0.06
32395 H 12.421643633082368 22.858712535511415 136.9474622153429 H 0.0 **** 0.06
32396 C 65.5522386602875 82.25128498600498 105.7479936029514 C 0.0 **** -0.24
32397 H 65.63549768466788 81.9836227360608 104.69466661196012 H 0.0 **** 0.06
32398 H 64.60374294770448 82.76100414037711 105.91923376454156 H 0.0 **** 0.06
32399 H 66.37471819689867 82.91308412242219 106.02071185119058 H 0.0 **** 0.06
32400 H 65.59485046165086 81.34841790388106 106.35739180912043 H 0.0 **** 0.06
32401 C 56.50137498609702 63.72473355668879 2.1339514347350814 C 0.0 **** -0.24
32402 H 56.80603600415927 64.59152922601879 2.7205934353141856 H 0.0 **** 0.06
32403 H 57.26481285981629 63.50649867936917 1.3865518829695134 H 0.0 **** 0.06
32404 H 55.55533272487017 63.936406945803554 1.6359531418674464 H 0.0 **** 0.06
32405 H 56.38017716309089 62.864242609643725 2.792263922793495 H 0.0 **** 0.06
32406 C 52.3023058796594 116.16030067551269 109.69493512556973 C 0.0 **** -0.24
32407 H 52.882585272311445 115.39067249440775 110.20473040060942 H 0.0 **** 0.06
32408 H 51.63028220501471 115.69242242935364 108.97590313807767 H 0.0 **** 0.06
32409 H 52.97769490143045 116.8390102778895 109.17451527499402 H 0.0 **** 0.06
32410 H 51.71963751724044 116.71985562035364 110.42713575833822 H 0.0 **** 0.06
32411 C 143.70864900023182 78.9251454064546 37.98958511410211 C 0.0 **** -0.24
32412 H 144.75176183384906 78.95233147255895 38.305947984565876 H 0.0 **** 0.06
32413 H 143.08638230092683 79.40017859512186 38.7478466186335 H 0.0 **** 0.06
32414 H 143.3958786362919 77.88962282366576 37.858388531403335 H 0.0 **** 0.06
32415 H 143.6024061395754 79.45960938309676 37.04561551450371 H 0.0 **** 0.06
32416 C 30.81150431276434 63.71656064032062 65.10006621047809 C 0.0 **** -0.24
32417 H 29.813220079754622 64.09937782695678 64.89055620913959 H 0.0 **** 0.06
32418 H 30.733324739684882 62.73284355249123 65.56348995009768 H 0.0 **** 0.06
32419 H 31.327539933934197 64.3969932103042 65.77770156073 H 0.0 **** 0.06
32420 H 31.37284151525934 63.63736317731562 64.16876484721722 H 0.0 **** 0.06
32421 C 39.0320111138989 125.96884627497755 106.56601139828972 C 0.0 **** -0.24
32422 H 38.19434498461331 125.99013033809035 107.26307906949835 H 0.0 **** 0.06
32423 H 38.945466897219575 126.80165992670013 105.86823391918027 H 0.0 **** 0.06
32424 H 39.020504376971786 125.02887171464897 106.01390059853121 H 0.0 **** 0.06
32425 H 39.966632198206526 126.0539935583044 107.11995746460833 H 0.0 **** 0.06
32426 C 6.596750385779387 136.93190245983376 38.20431006455601 C 0.0 **** -0.24
32427 H 6.4808358608250956 137.80715465356295 38.8450466731544 H 0.0 **** 0.06
32428 H 7.050195150112586 136.12206161139343 38.77622925613338 H 0.0 **** 0.06
32429 H 7.235927614948082 137.18326640756524 37.357837065415424 H 0.0 **** 0.06
32430 H 5.618625164849732 136.61724213752714 37.84000271383587 H 0.0 **** 0.06
32431 C 43.165581245021315 43.117589077781304 123.57037044542005 C 0.0 **** -0.24
32432 H 43.248414945226614 42.98684925225032 124.64953104132547 H 0.0 **** 0.06
32433 H 43.26064362221348 44.175225002624074 123.32520259388056 H 0.0 **** 0.06
32434 H 42.19535487331703 42.75204391308077 123.23404409264714 H 0.0 **** 0.06
32435 H 43.957738084406145 42.55531741502185 123.07473442115295 H 0.0 **** 0.06
32436 C 2.6649439169120015 125.08788193570479 58.25483088763866 C 0.0 **** -0.24
32437 H 3.2612348528658686 124.67222956844513 59.067364053009186 H 0.0 **** 0.06
32438 H 3.2978468803226306 125.70989505553743 57.620995370615276 H 0.0 **** 0.06
32439 H 1.8577960306007952 125.69237916986131 58.66900029106232 H 0.0 **** 0.06
32440 H 2.2437227049599073 124.27588223449091 57.66209142326399 H 0.0 **** 0.06
32441 C 131.5195546314641 25.552335483814154 88.85468278114541 C 0.0 **** -0.24
32442 H 131.25476704421658 24.984757721339854 87.9632261846961 H 0.0 **** 0.06
32443 H 131.415606130292 26.617986831637815 88.65003963098668 H 0.0 **** 0.06
32444 H 132.5521011752416 25.333931921750107 89.12939803129059 H 0.0 **** 0.06
32445 H 130.85790242442297 25.27163245025752 89.67399959997327 H 0.0 **** 0.06
32446 C 65.48358596397418 7.221430168060522 95.57143870574399 C 0.0 **** -0.24
32447 H 64.44530025327802 7.252041178395189 95.90182128171563 H 0.0 **** 0.06
32448 H 66.03808024490084 8.03364135638077 96.04323002174485 H 0.0 **** 0.06
32449 H 65.52300690600586 7.334572176197128 94.48802060832085 H 0.0 **** 0.06
32450 H 65.92646469645516 6.266430556765101 95.85404101288194 H 0.0 **** 0.06
32451 C 66.40211621065404 130.51656377742796 134.62532424591345 C 0.0 **** -0.24
32452 H 66.14297690332077 131.55690032620174 134.4255803207417 H 0.0 **** 0.06
32453 H 67.46475881238874 130.3651894781234 134.43346634226563 H 0.0 **** 0.06
32454 H 65.81849794931898 129.86564055476674 133.97388767576066 H 0.0 **** 0.06
32455 H 66.18309648870041 130.28079278267353 135.66633589771305 H 0.0 **** 0.06
32456 C 33.44437556467284 19.918283824230343 82.74726071662619 C 0.0 **** -0.24
32457 H 33.8228324800198 19.345740104486012 83.59456230751084 H 0.0 **** 0.06
32458 H 34.08390022748105 19.75002586059756 81.8810746298183 H 0.0 **** 0.06
32459 H 33.44269989424703 20.978910924660028 82.99812568440313 H 0.0 **** 0.06
32460 H 32.428830242735586 19.59801972036584 82.51677329339174 H 0.0 **** 0.06
32461 C 136.06860083232323 0.1972856556684235 35.03069589086169 C 0.0 **** -0.24
32462 H 135.64373212546425 0.34574755060808116 34.038787391373944 H 0.0 **** 0.06
32463 H 136.8745355229838 -0.5350341536923793 34.97488456468727 H 0.0 **** 0.06
32464 H 135.29470028333645 -0.1648023347987646 35.7070679023596 H 0.0 **** 0.06
32465 H 136.4627152336314 1.143359382553399 35.40263172577295 H 0.0 **** 0.06
32466 C 114.63894215415343 83.2842593022761 48.35328818737017 C 0.0 **** -0.24
32467 H 114.1538614935435 84.02495152928225 48.98843670603398 H 0.0 **** 0.06
32468 H 113.95198384399725 82.45663743693046 48.17099635598419 H 0.0 **** 0.06
32469 H 115.53375873007616 82.9107682055224 48.84988212162901 H 0.0 **** 0.06
32470 H 114.91377774080058 83.74429740516433 47.40423379975684 H 0.0 **** 0.06
32471 C 49.41556119000914 73.75085551453793 30.71989311800968 C 0.0 **** -0.24
32472 H 49.740946443361224 72.71948451288736 30.858389399571763 H 0.0 **** 0.06
32473 H 50.134848126499676 74.42360814750208 31.18615062420986 H 0.0 **** 0.06
32474 H 48.43763800600634 73.88692240335735 31.18160941750051 H 0.0 **** 0.06
32475 H 49.34790014750578 73.9699175126878 29.65441918235956 H 0.0 **** 0.06
32476 C 66.98836693834677 83.03421308027819 7.077879967549052 C 0.0 **** -0.24
32477 H 66.6477006054033 82.5177548392594 6.180005661864072 H 0.0 **** 0.06
32478 H 66.1420086548949 83.1933380994372 7.748008981171608 H 0.0 **** 0.06
32479 H 67.41913273244329 83.99608083645396 6.80179828177171 H 0.0 **** 0.06
32480 H 67.74269322963944 82.42878136520704 7.581028263569124 H 0.0 **** 0.06
32481 C 64.6231743248263 50.44604982315933 122.89752554729702 C 0.0 **** -0.24
32482 H 65.32407427171987 50.4457588000306 123.73203142318408 H 0.0 **** 0.06
32483 H 63.61070241143935 50.295117373204874 123.27361193339097 H 0.0 **** 0.06
32484 H 64.8792723656359 49.641267616075524 122.20864654738365 H 0.0 **** 0.06
32485 H 64.67930334482926 51.402109712423496 122.37656591410949 H 0.0 **** 0.06
32486 C 76.59851788910132 17.02270834080977 85.35328232058188 C 0.0 **** -0.24
32487 H 77.48180005235238 16.447503357342903 85.62939408751032 H 0.0 **** 0.06
32488 H 76.88303424929056 17.817412270980547 84.6641488282252 H 0.0 **** 0.06
32489 H 76.15345643898355 17.457361290234452 86.24835495340287 H 0.0 **** 0.06
32490 H 75.874417660179 16.36509714546768 84.87081228634787 H 0.0 **** 0.06
32491 C 50.715244817321945 30.233911325922946 107.160156906977 C 0.0 **** -0.24
32492 H 49.919280136969604 30.082758345745873 106.43146433122669 H 0.0 **** 0.06
32493 H 50.902293423741185 29.30054650785553 107.69306489247455 H 0.0 **** 0.06
32494 H 50.41586596637919 31.004207246608473 107.87122189430906 H 0.0 **** 0.06
32495 H 51.62412403825667 30.547567776491576 106.64640589587904 H 0.0 **** 0.06
32496 C 103.94955933349202 2.2733252093723024 30.358760316314232 C 0.0 **** -0.24
32497 H 104.19117925995126 1.5703778196686073 29.56086638813258 H 0.0 **** 0.06
32498 H 103.12555285534185 1.8775132504338785 30.95352091518498 H 0.0 **** 0.06
32499 H 103.65775331037615 3.229190618447035 29.924230178012436 H 0.0 **** 0.06
32500 H 104.82266088680942 2.414010313569321 30.994711734992222 H 0.0 **** 0.06
32501 C 33.352976852310434 27.850339047709717 70.92690034045955 C 0.0 **** -0.24
32502 H 32.56001910729711 27.137405257931498 70.70366219505439 H 0.0 **** 0.06
32503 H 33.32233560865316 28.66653985995182 70.20408203020372 H 0.0 **** 0.06
32504 H 34.319592318558506 27.34945593227851 70.86873193141429 H 0.0 **** 0.06
32505 H 33.21098758682837 28.248916475901446 71.9312692789722 H 0.0 **** 0.06
32506 C 85.58270419278898 112.53673946072176 129.09864442111947 C 0.0 **** -0.24
32507 H 84.52509314605383 112.66774162341729 129.32835341012017 H 0.0 **** 0.06
32508 H 85.6913020399405 112.21075995524514 128.06350876344808 H 0.0 **** 0.06
32509 H 86.00802530604004 111.78525926473911 129.76285244944555 H 0.0 **** 0.06
32510 H 86.10440726426062 113.48379654961018 129.23903566921157 H 0.0 **** 0.06
32511 C 115.51718597427964 38.1152837563683 76.88685378842493 C 0.0 **** -0.24
32512 H 116.31080503583104 37.37081243216142 76.95299865911197 H 0.0 **** 0.06
32513 H 114.86219216971091 37.87365822094601 76.04970677747201 H 0.0 **** 0.06
32514 H 115.95614076439364 39.10135576902063 76.73298176221479 H 0.0 **** 0.06
32515 H 114.94061404865897 38.11435879980132 77.81201370248492 H 0.0 **** 0.06
32516 C 142.4603400724301 28.371159524279932 59.613672359288145 C 0.0 **** -0.24
32517 H 143.49372169136464 28.681906693668225 59.457901536753724 H 0.0 **** 0.06
32518 H 142.2208353263346 27.554629898170788 58.932891397156865 H 0.0 **** 0.06
32519 H 141.79487250245236 29.21282843859875 59.422504278413356 H 0.0 **** 0.06
32520 H 142.33443755663725 28.035285690451985 60.64331999453859 H 0.0 **** 0.06
32521 C 101.24164033907633 29.771102660707044 107.90144639160911 C 0.0 **** -0.24
32522 H 101.57692957705233 30.515867482265534 108.62258184449672 H 0.0 **** 0.06
32523 H 100.31705229298298 29.313669935515776 108.2535090867924 H 0.0 **** 0.06
32524 H 102.0072829370488 29.003036152971106 107.79098301064732 H 0.0 **** 0.06
32525 H 101.06711609159689 30.250863374220458 106.93785058069113 H 0.0 **** 0.06
32526 C 70.92923419702181 91.9903922838501 57.10495509367718 C 0.0 **** -0.24
32527 H 70.96174869110509 90.94609557170457 56.79554266957689 H 0.0 **** 0.06
32528 H 69.89567694118948 92.33672772717222 57.10883587639674 H 0.0 **** 0.06
32529 H 71.51212819116233 92.59323987999045 56.40806321077358 H 0.0 **** 0.06
32530 H 71.34916627238952 92.08603117092332 58.106135966888274 H 0.0 **** 0.06
32531 C 72.89310522324568 6.647167235163291 38.91296434577304 C 0.0 **** -0.24
32532 H 73.64661815143315 5.943397125078999 38.55965600051476 H 0.0 **** 0.06
32533 H 71.98157331365333 6.527790970944277 38.32613315766981 H 0.0 **** 0.06
32534 H 73.26681268404788 7.665479607575815 38.80155706222064 H 0.0 **** 0.06
32535 H 72.67781059737207 6.452020330022108 39.96359216402394 H 0.0 **** 0.06
32536 C 16.666739679370096 81.16770243744972 83.61999224190878 C 0.0 **** -0.24
32537 H 16.597898050713525 81.07135535602461 84.70378372986093 H 0.0 **** 0.06
32538 H 17.655029914886427 81.54260698867922 83.35071551139579 H 0.0 **** 0.06
32539 H 15.906003815731538 81.86487303108188 83.26876580981607 H 0.0 **** 0.06
32540 H 16.509726324890835 80.19325229413899 83.15792016495239 H 0.0 **** 0.06
32541 C 83.27181712178307 65.90897264154937 44.912693040401024 C 0.0 **** -0.24
32542 H 83.8286943840328 65.78640940779111 43.984167418983546 H 0.0 **** 0.06
32543 H 83.18442757298745 66.96978158665206 45.14666382356977 H 0.0 **** 0.06
32544 H 83.79532147672445 65.39980373538322 45.720881162570166 H 0.0 **** 0.06
32545 H 82.27569188608709 65.47897453373116 44.79753167533717 H 0.0 **** 0.06
32546 C 89.81461547434124 63.55129579531592 70.1833591862543 C 0.0 **** -0.24
32547 H 89.98842493728999 62.96086797404007 69.28359523530001 H 0.0 **** 0.06
32548 H 89.14374996412329 64.37827659526062 69.95089603747577 H 0.0 **** 0.06
32549 H 90.76279794282128 63.94340392581336 70.5502230379481 H 0.0 **** 0.06
32550 H 89.36263121769593 62.91944028429242 70.94847667904126 H 0.0 **** 0.06
32551 C 32.05679295798879 126.87103023791471 85.3403203697212 C 0.0 **** -0.24
32552 H 31.486583196039362 127.79060234095836 85.47548290605941 H 0.0 **** 0.06
32553 H 31.8976315823962 126.2159006915617 86.19738622106108 H 0.0 **** 0.06
32554 H 33.1170481067783 127.11008672293232 85.25718242913496 H 0.0 **** 0.06
32555 H 31.725447246399426 126.36880837836922 84.43162454381705 H 0.0 **** 0.06
32556 C 145.57834296287703 37.53631757283992 82.16167297825433 C 0.0 **** -0.24
32557 H 145.200297159139 38.41541194281169 81.639305888162 H 0.0 **** 0.06
32558 H 144.94817006603049 36.67738734852031 81.9298413387408 H 0.0 **** 0.06
32559 H 145.5631988771293 37.71934691180887 83.23594519725583 H 0.0 **** 0.06
32560 H 146.60053228758028 37.335016829161816 81.84180132527257 H 0.0 **** 0.06
32561 C 120.45074722075576 7.756721341761487 39.62647600450808 C 0.0 **** -0.24
32562 H 120.22775326246445 7.733599999750702 40.69270672585134 H 0.0 **** 0.06
32563 H 119.86186194905336 8.54007620945496 39.149273545730125 H 0.0 **** 0.06
32564 H 120.2029815540265 6.793131217957473 39.18215280028579 H 0.0 **** 0.06
32565 H 121.51214840856578 7.961461914887572 39.48178747535117 H 0.0 **** 0.06
32566 C 123.56488288973912 59.030147099476224 82.37965344898197 C 0.0 **** -0.24
32567 H 124.00348341544031 58.03500179638 82.30970862751182 H 0.0 **** 0.06
32568 H 122.48418026002798 58.94227710552401 82.49545771536347 H 0.0 **** 0.06
32569 H 123.78889885596857 59.59076040692149 81.4725402097157 H 0.0 **** 0.06
32570 H 123.98192027046633 59.55061179764927 83.24129094760805 H 0.0 **** 0.06
32571 C 56.73573760510163 97.95495537777182 20.72129382286917 C 0.0 **** -0.24
32572 H 57.71309392019526 98.42544658165714 20.828221617561013 H 0.0 **** 0.06
32573 H 56.75059481220177 97.27500305993807 19.868891305934625 H 0.0 **** 0.06
32574 H 55.978450995035416 98.72349349890996 20.56109358236027 H 0.0 **** 0.06
32575 H 56.499592683369656 97.39739783713442 21.628067827207687 H 0.0 **** 0.06
32576 C 121.59920282636234 29.197077620119842 84.47844327021205 C 0.0 **** -0.24
32577 H 121.19948393700598 30.029566598041697 85.05693940673343 H 0.0 **** 0.06
32578 H 122.44349162038775 28.757426615652832 85.01029039225254 H 0.0 **** 0.06
32579 H 121.93109296769258 29.557675490296276 83.50455209031655 H 0.0 **** 0.06
32580 H 120.82401418345923 28.44411592361962 84.34159268680374 H 0.0 **** 0.06
32581 C 14.879750326987143 61.93093602304508 140.3691844134099 C 0.0 **** -0.24
32582 H 15.923577649911849 62.18471644450827 140.1838605786153 H 0.0 **** 0.06
32583 H 14.23558445033219 62.652648219354205 139.86583188025602 H 0.0 **** 0.06
32584 H 14.684705664714393 61.95601372735514 141.44142953326667 H 0.0 **** 0.06
32585 H 14.6756514866765 60.93117622213356 139.98534210446647 H 0.0 **** 0.06
32586 C 142.7801007386582 105.53231999133551 127.04550186613776 C 0.0 **** -0.24
32587 H 143.05545221252268 106.31847140582623 127.74905602042813 H 0.0 **** 0.06
32588 H 142.570734841063 104.61314880392 127.59223683382422 H 0.0 **** 0.06
32589 H 143.60304127053794 105.36335875242499 126.35123688559779 H 0.0 **** 0.06
32590 H 141.89256355947143 105.8362671044667 126.48993113855678 H 0.0 **** 0.06
32591 C 29.24537179968216 79.64190320010513 54.194023407974385 C 0.0 **** -0.24
32592 H 28.388215417793447 80.2965973302581 54.353586749352544 H 0.0 **** 0.06
32593 H 29.688581234232643 79.38407966403918 55.15686420446022 H 0.0 **** 0.06
32594 H 29.984745650764836 80.15467669427592 53.57868727638771 H 0.0 **** 0.06
32595 H 28.91907642748434 78.73274665269678 53.68895747184416 H 0.0 **** 0.06
32596 C 59.62114686105801 39.69532269405079 131.11288172783628 C 0.0 **** -0.24
32597 H 59.001643917273924 40.3017181630608 130.45102026355613 H 0.0 **** 0.06
32598 H 60.62929537174219 39.62650323538162 130.70274222491065 H 0.0 **** 0.06
32599 H 59.19340247452541 38.69695075675344 131.19648226498845 H 0.0 **** 0.06
32600 H 59.65922444589907 40.15924225394855 132.0984184493316 H 0.0 **** 0.06
32601 C 12.13127856326227 88.39392343289587 51.225789273270266 C 0.0 **** -0.24
32602 H 11.846072306620925 87.34359611009327 51.15915714538835 H 0.0 **** 0.06
32603 H 12.5357133188825 88.5980691574803 52.21746007151725 H 0.0 **** 0.06
32604 H 11.25474609089403 89.01938374471793 51.05496730364277 H 0.0 **** 0.06
32605 H 12.887314980410878 88.61412235266846 50.47191973481608 H 0.0 **** 0.06
32606 C 118.85844722877873 14.67430272141894 123.2686728206589 C 0.0 **** -0.24
32607 H 118.48610676846432 14.10108158561681 122.41974349574076 H 0.0 **** 0.06
32608 H 118.05012130772086 15.27802635024068 123.68175501535379 H 0.0 **** 0.06
32609 H 119.66813858076135 15.326461292499005 122.93851969230866 H 0.0 **** 0.06
32610 H 119.23018054046067 13.991920256009507 124.03258798711332 H 0.0 **** 0.06
32611 C 80.31021176418807 137.97307377122618 137.4788556615432 C 0.0 **** -0.24
32612 H 81.21675852805588 138.56488386062523 137.60228841434468 H 0.0 **** 0.06
32613 H 79.75910885019793 138.33034068226274 136.60788843536665 H 0.0 **** 0.06
32614 H 79.6872808701498 138.07159466092475 138.36752579435617 H 0.0 **** 0.06
32615 H 80.57685524306048 136.92633169300018 137.3358342126173 H 0.0 **** 0.06
32616 C 69.3903041337073 27.65021929078175 76.10260918896489 C 0.0 **** -0.24
32617 H 70.3324343501676 28.127542235359016 75.83135396122128 H 0.0 **** 0.06
32618 H 68.56492953895388 28.178400038847727 75.62346532105818 H 0.0 **** 0.06
32619 H 69.2644198289118 27.683538159203096 77.1846003497406 H 0.0 **** 0.06
32620 H 69.39991027605518 26.613193221329922 75.76866233219715 H 0.0 **** 0.06
32621 C 18.714351960469543 80.06606062381913 136.90822359626335 C 0.0 **** -0.24
32622 H 19.698002918165088 79.79328806504972 136.52637309263648 H 0.0 **** 0.06
32623 H 18.404656618147328 79.34479501418859 137.66477275473565 H 0.0 **** 0.06
32624 H 17.994123615193956 80.06651133579986 136.08909424517444 H 0.0 **** 0.06
32625 H 18.760153072289114 81.0608072119747 137.3505485261161 H 0.0 **** 0.06
32626 C 64.10639147843489 60.99289668064024 57.89603341331531 C 0.0 **** -0.24
32627 H 63.67128435507141 61.93874310989399 58.22158724861225 H 0.0 **** 0.06
32628 H 64.55188926645877 61.119113512861944 56.90962279998695 H 0.0 **** 0.06
32629 H 63.32690353408452 60.232573723463176 57.849714623679176 H 0.0 **** 0.06
32630 H 64.87435152768461 60.68325871334713 58.605908509443 H 0.0 **** 0.06
32631 C 99.12596996995704 93.00095099348164 138.87264670385625 C 0.0 **** -0.24
32632 H 99.5377917436974 93.75446349279537 139.54385652773794 H 0.0 **** 0.06
32633 H 98.45704062257434 93.4785332506161 138.15672030241217 H 0.0 **** 0.06
32634 H 98.57059305590006 92.26215606287792 139.45199936784564 H 0.0 **** 0.06
32635 H 99.93827613487399 92.50734274100179 138.3391314884168 H 0.0 **** 0.06
32636 C 4.766547581843952 35.514390126625386 76.23561546378058 C 0.0 **** -0.24
32637 H 5.3793620522104675 34.70273463311264 75.8419408090758 H 0.0 **** 0.06
32638 H 3.852911956939721 35.59728526065939 75.64553893324786 H 0.0 **** 0.06
32639 H 5.322475702672904 36.45021853575176 76.17832663391115 H 0.0 **** 0.06
32640 H 4.5118084541078645 35.30528889420273 77.27426146564176 H 0.0 **** 0.06
32641 C 30.18662881654211 143.11056452587582 108.9527538853902 C 0.0 **** -0.24
32642 H 30.185496498925772 142.3638562925406 108.15802973526658 H 0.0 **** 0.06
32643 H 29.298956725576204 142.983666362702 109.57249013015891 H 0.0 **** 0.06
32644 H 30.18258142343192 144.10816695610453 108.51266646083943 H 0.0 **** 0.06
32645 H 31.07982326269063 142.98732805414025 109.5655257564919 H 0.0 **** 0.06
32646 C 78.19287144030216 58.25717552752138 25.445753045325446 C 0.0 **** -0.24
32647 H 77.28094599229595 58.40312322080025 24.8657278747511 H 0.0 **** 0.06
32648 H 78.32622065308496 57.19497672281925 25.650703236841778 H 0.0 **** 0.06
32649 H 78.11625266268693 58.802691314734346 26.385673751081583 H 0.0 **** 0.06
32650 H 79.04632886795272 58.62854368055271 24.87854496417981 H 0.0 **** 0.06
32651 C 116.51138446251616 14.478423320596505 23.94178375344122 C 0.0 **** -0.24
32652 H 115.52475811975961 14.712450601403873 23.54138444490026 H 0.0 **** 0.06
32653 H 117.23368027610695 15.210370811632998 23.57761949025813 H 0.0 **** 0.06
32654 H 116.80831338965481 13.481079637865122 23.617901564593808 H 0.0 **** 0.06
32655 H 116.47686384812403 14.51183062136522 25.03130210147677 H 0.0 **** 0.06
32656 C 101.88804013503251 52.767254930784375 91.47538782606534 C 0.0 **** -0.24
32657 H 102.47104196281292 52.996702465823404 90.58376258583365 H 0.0 **** 0.06
32658 H 101.39112019198133 51.80531320128988 91.3471006380422 H 0.0 **** 0.06
32659 H 101.13965926688678 53.545618846541814 91.62985355274031 H 0.0 **** 0.06
32660 H 102.54986981297886 52.72224954339309 92.34065363279058 H 0.0 **** 0.06
32661 C 101.01344272506569 55.89121395139745 87.46762584884979 C 0.0 **** -0.24
32662 H 101.68291864148918 55.60530182940607 86.65555183173089 H 0.0 **** 0.06
32663 H 100.39731921827192 55.03736372365216 87.74831158238342 H 0.0 **** 0.06
32664 H 100.37281692552196 56.7092654668067 87.13890076518814 H 0.0 **** 0.06
32665 H 101.6016197355078 56.21350291943344 88.32681763120058 H 0.0 **** 0.06
32666 C 43.52113824869954 75.09277002010742 43.77096426585692 C 0.0 **** -0.24
32667 H 43.731699407544326 76.1057687697753 43.42796509661429 H 0.0 **** 0.06
32668 H 43.510590650652134 74.4155764653238 42.91608497851681 H 0.0 **** 0.06
32669 H 42.54875325659715 75.07068990177265 44.26397322576085 H 0.0 **** 0.06
32670 H 44.292364125879985 74.77873886162723 44.4739379149656 H 0.0 **** 0.06
32671 C 53.4533775638715 66.32272352955277 73.4033477848522 C 0.0 **** -0.24
32672 H 53.46610922820372 67.36525433607639 73.08464990225144 H 0.0 **** 0.06
32673 H 52.68362811348831 65.7836116047678 72.85059011771006 H 0.0 **** 0.06
32674 H 53.237778220824254 66.27158740866199 74.47061997117817 H 0.0 **** 0.06
32675 H 54.4262274230891 65.87137567751691 73.20726314474882 H 0.0 **** 0.06
32676 C 5.800996234064407 40.9937655807243 27.965020840228156 C 0.0 **** -0.24
32677 H 6.704828108689526 41.44258415095641 27.551089929140744 H 0.0 **** 0.06
32678 H 5.181841122227016 41.77155210172043 28.412617752077317 H 0.0 **** 0.06
32679 H 6.0745408544429225 40.26420731161619 28.727081176839427 H 0.0 **** 0.06
32680 H 5.24477430731244 40.498674333193094 27.169716701303656 H 0.0 **** 0.06
32681 C 95.85719479460084 135.7675938032179 73.72660027098041 C 0.0 **** -0.24
32682 H 95.2890670708289 136.2137317274114 74.54187302751158 H 0.0 **** 0.06
32683 H 96.23876447154547 136.55554006846913 73.07561850920906 H 0.0 **** 0.06
32684 H 95.2106167209636 135.10440647903005 73.15293554766986 H 0.0 **** 0.06
32685 H 96.69229038248017 135.19755202818277 74.1353186167632 H 0.0 **** 0.06
32686 C 8.173086231416935 81.49142459837353 70.90745705395341 C 0.0 **** -0.24
32687 H 7.316251465773586 81.16937111540932 70.31552070402293 H 0.0 **** 0.06
32688 H 8.61528985500545 82.37822746407207 70.45205988269208 H 0.0 **** 0.06
32689 H 8.913001684845607 80.69126866088651 70.93979160304681 H 0.0 **** 0.06
32690 H 7.84743557421336 81.72640120689393 71.92029242826567 H 0.0 **** 0.06
32691 C 85.13070988067098 126.4788655109781 143.33803863322458 C 0.0 **** -0.24
32692 H 85.82604505782926 126.89483648042079 144.0676920276466 H 0.0 **** 0.06
32693 H 84.92795142350252 127.22223023308484 142.5658962414473 H 0.0 **** 0.06
32694 H 84.2003231145552 126.20847235889359 143.83695233845887 H 0.0 **** 0.06
32695 H 85.57069053332283 125.59221179407378 142.88263873708325 H 0.0 **** 0.06
32696 C 82.58132530703514 41.25639289830602 15.382306164807744 C 0.0 **** -0.24
32697 H 82.15254056100721 42.089896370820526 15.94004227362484 H 0.0 **** 0.06
32698 H 82.47939955934956 40.34035856637837 15.963495553543453 H 0.0 **** 0.06
32699 H 83.6369017369413 41.451945687409676 15.191299773696187 H 0.0 **** 0.06
32700 H 82.05559221978226 41.14622437368695 14.434060681780295 H 0.0 **** 0.06
32701 C 5.0127661605987335 33.48911387845717 86.17881388693544 C 0.0 **** -0.24
32702 H 4.398919213376729 33.14660657599739 87.01245146519085 H 0.0 **** 0.06
32703 H 5.071762599659298 34.5772997811395 86.19353620342169 H 0.0 **** 0.06
32704 H 4.566066362735384 33.16155648593906 85.23994736262708 H 0.0 **** 0.06
32705 H 6.015550085355425 33.06952257098728 86.27046821416003 H 0.0 **** 0.06
32706 C 141.4556689516863 105.29578696920679 9.741583687643242 C 0.0 **** -0.24
32707 H 140.65283377185682 104.67993919839422 10.148775485005388 H 0.0 **** 0.06
32708 H 142.21993622336063 104.65351515323495 9.305034367917301 H 0.0 **** 0.06
32709 H 141.8954677064338 105.89243486967949 10.540698341468158 H 0.0 **** 0.06
32710 H 141.0534756886169 105.95626819170185 8.974489849085387 H 0.0 **** 0.06
32711 C 121.63704054947586 53.84195838514091 36.18058968925222 C 0.0 **** -0.24
32712 H 122.23600166856907 54.156722694516986 35.32581608191954 H 0.0 **** 0.06
32713 H 121.88609511962714 52.81266970196958 36.43906508780208 H 0.0 **** 0.06
32714 H 120.57919231758892 53.90794441311124 35.92720492861031 H 0.0 **** 0.06
32715 H 121.84882286039074 54.49156379615556 37.0300277220044 H 0.0 **** 0.06
32716 C 109.12128767997588 52.61235408708595 77.57439030534658 C 0.0 **** -0.24
32717 H 108.98787808742252 52.262757758994866 76.55048152149942 H 0.0 **** 0.06
32718 H 109.03218855022673 53.698441388660996 77.60176953748106 H 0.0 **** 0.06
32719 H 110.10784189309932 52.319283533798 77.93177844102496 H 0.0 **** 0.06
32720 H 108.35678043059501 52.16783953818825 78.21163702356142 H 0.0 **** 0.06
32721 C 141.2836470573988 3.796980765652279 119.8927633643184 C 0.0 **** -0.24
32722 H 141.063930618148 2.7296296846358814 119.85594915396865 H 0.0 **** 0.06
32723 H 141.04150921007596 4.249910108572578 118.93140330446414 H 0.0 **** 0.06
32724 H 142.3425783626114 3.942111447654611 120.10632943916005 H 0.0 **** 0.06
32725 H 140.68706157198517 4.263748589065415 120.67582492298595 H 0.0 **** 0.06
32726 C 99.8080918704512 5.623914613549466 45.44842728026232 C 0.0 **** -0.24
32727 H 100.59478415822755 5.493206968356123 46.192080217452 H 0.0 **** 0.06
32728 H 99.26819191733938 6.550022739551643 45.65036726298777 H 0.0 **** 0.06
32729 H 99.11754639629052 4.7821230857465835 45.498824344121985 H 0.0 **** 0.06
32730 H 100.25181924441213 5.67157945730715 44.4545294341586 H 0.0 **** 0.06
32731 C 125.25950185655248 125.79559385848435 77.00542178956704 C 0.0 **** -0.24
32732 H 125.90458340688251 126.19363786301281 77.78905415501669 H 0.0 **** 0.06
32733 H 124.36429553874801 126.41157175964676 76.92490635331433 H 0.0 **** 0.06
32734 H 124.9766945527684 124.77249933792504 77.2540028517949 H 0.0 **** 0.06
32735 H 125.79521008013387 125.80466501380207 76.05623250053557 H 0.0 **** 0.06
32736 C 134.2839252426351 77.15879889022291 138.615210582892 C 0.0 **** -0.24
32737 H 133.82478479507716 77.78591675889727 139.38024011136096 H 0.0 **** 0.06
32738 H 133.50856019313233 76.74421111627247 137.9711369027142 H 0.0 **** 0.06
32739 H 134.83224673318364 76.34706123055929 139.09379018296977 H 0.0 **** 0.06
32740 H 134.97116317585443 77.75895290200249 138.01913838277068 H 0.0 **** 0.06
32741 C 75.71644626625442 73.71620831036452 106.95523037738194 C 0.0 **** -0.24
32742 H 75.81894200395874 72.74967111411496 107.44962537447675 H 0.0 **** 0.06
32743 H 76.66397284967042 73.98738400977406 106.48911662287018 H 0.0 **** 0.06
32744 H 75.44264002149868 74.4734005213403 107.69025215439682 H 0.0 **** 0.06
32745 H 74.94101838134412 73.65324543407952 106.19161582855058 H 0.0 **** 0.06
32746 C 7.547264419070245 64.64645890483975 75.1386962197885 C 0.0 **** -0.24
32747 H 7.727962975415039 65.03305015834157 76.14154721486075 H 0.0 **** 0.06
32748 H 7.199927441796206 65.45516082888093 74.49547298425503 H 0.0 **** 0.06
32749 H 6.78962107753523 63.86404702062346 75.1824009891899 H 0.0 **** 0.06
32750 H 8.473012871635603 64.23419930750167 74.73693293673506 H 0.0 **** 0.06
32751 C 45.31881101613618 58.57056931706089 36.41860104495757 C 0.0 **** -0.24
32752 H 44.9552810415272 58.39494229288043 37.43143915372866 H 0.0 **** 0.06
32753 H 45.06823709028316 57.71637054797894 35.789901554193754 H 0.0 **** 0.06
32754 H 46.399741183636024 58.70281804918547 36.43862761661567 H 0.0 **** 0.06
32755 H 44.850078567704884 59.46887393306214 36.01579136202688 H 0.0 **** 0.06
32756 C 95.82665504543039 5.4094901981227395 109.16968097604551 C 0.0 **** -0.24
32757 H 96.16166604781573 5.201161541671695 108.1529195714371 H 0.0 **** 0.06
32758 H 95.7585356802191 6.487173064169326 109.31602734800369 H 0.0 **** 0.06
32759 H 96.53949940655728 4.98997918109734 109.87994806824402 H 0.0 **** 0.06
32760 H 94.84672123665871 4.958183884553989 109.32814952185292 H 0.0 **** 0.06
32761 C 106.27565559626088 97.35887753677775 132.9244218773896 C 0.0 **** -0.24
32762 H 106.46993686360976 97.69676064560406 131.90664897741866 H 0.0 **** 0.06
32763 H 105.20085120243607 97.36184419987615 133.1094290902717 H 0.0 **** 0.06
32764 H 106.76772787911632 98.0298832196786 133.6297375619552 H 0.0 **** 0.06
32765 H 106.66441238868548 96.34906417361225 133.0527300613567 H 0.0 **** 0.06
32766 C 20.94977378635761 65.55961794221594 86.57879756410992 C 0.0 **** -0.24
32767 H 21.309655214921634 64.80434296118278 85.88143547972703 H 0.0 **** 0.06
32768 H 21.725575905268983 65.77320329415232 87.315062686491 H 0.0 **** 0.06
32769 H 20.058972284199257 65.19068262483151 87.0871274855532 H 0.0 **** 0.06
32770 H 20.705559509789737 66.47091345780777 86.03261556105689 H 0.0 **** 0.06
32771 C 142.47093078248653 116.17921520100253 81.20433341913521 C 0.0 **** -0.24
32772 H 141.56363844837622 116.77781182452605 81.12040715178765 H 0.0 **** 0.06
32773 H 142.79149560651788 115.86398762133257 80.21017660715765 H 0.0 **** 0.06
32774 H 142.26969556392802 115.30036012993497 81.81715399780875 H 0.0 **** 0.06
32775 H 143.2570058261256 116.77431926274068 81.6680823115769 H 0.0 **** 0.06
32776 C 142.81729008564534 78.7896442300898 13.659504361450928 C 0.0 **** -0.24
32777 H 141.9440210078388 79.04916263553234 14.257770356887733 H 0.0 **** 0.06
32778 H 142.6918147022876 77.78748139600856 13.249004057359684 H 0.0 **** 0.06
32779 H 143.70816741873065 78.81562848198851 14.287863605223748 H 0.0 **** 0.06
32780 H 142.92612145555643 79.50619569359849 12.845394032381506 H 0.0 **** 0.06
32781 C 111.05445533000928 34.50018353974036 85.26518888057225 C 0.0 **** -0.24
32782 H 111.81822170977996 34.69914977322702 84.51460565877748 H 0.0 **** 0.06
32783 H 110.55515652639524 33.55851905965528 85.03492023379653 H 0.0 **** 0.06
32784 H 110.32307472418223 35.30879464019404 85.26265442039548 H 0.0 **** 0.06
32785 H 111.51915694412476 34.43423793707035 86.2489050383193 H 0.0 **** 0.06
32786 C 116.0857058943014 121.38830234333774 38.91868931002099 C 0.0 **** -0.24
32787 H 115.02099140946304 121.57827338959099 38.78495097787068 H 0.0 **** 0.06
32788 H 116.26920629575635 121.0545294485065 39.93989651069698 H 0.0 **** 0.06
32789 H 116.64399087047242 122.3047908535964 38.72900122110694 H 0.0 **** 0.06
32790 H 116.40664764055857 120.61609419310084 38.22000208590373 H 0.0 **** 0.06
32791 C 44.022570549542195 141.06166499572396 130.6093140584336 C 0.0 **** -0.24
32792 H 43.96710474894866 140.62552840763908 129.61251454727818 H 0.0 **** 0.06
32793 H 44.72116447303455 140.4871721073681 131.21824950787715 H 0.0 **** 0.06
32794 H 43.034921417503654 141.039290316547 131.07074931482532 H 0.0 **** 0.06
32795 H 44.36769826413814 142.09276335681835 130.53574838213626 H 0.0 **** 0.06
32796 C 2.6394106989877812 130.34511103886464 10.963184906202088 C 0.0 **** -0.24
32797 H 1.9179796113123224 131.13579360249952 10.755321493517727 H 0.0 **** 0.06
32798 H 2.9251090388039636 129.85984065776876 10.03002307483311 H 0.0 **** 0.06
32799 H 2.191234385869212 129.61094329725145 11.632648582207736 H 0.0 **** 0.06
32800 H 3.5230864363688106 130.77483184232128 11.434628546035356 H 0.0 **** 0.06
32801 C 71.69986091029584 139.68746058531067 6.650853793900836 C 0.0 **** -0.24
32802 H 72.53796210667821 139.07162185117332 6.976543706190768 H 0.0 **** 0.06
32803 H 70.89291007840546 139.6190169029346 7.381100161823241 H 0.0 **** 0.06
32804 H 71.34427522860565 139.33501464241604 5.682922725794725 H 0.0 **** 0.06
32805 H 72.02296700562678 140.72529009980363 6.5627045062839215 H 0.0 **** 0.06
32806 C 54.561081068364075 3.0778050000531216 56.22725174055748 C 0.0 **** -0.24
32807 H 54.000186721717654 2.88121257136471 57.14112802278626 H 0.0 **** 0.06
32808 H 54.13733163360067 2.496636965587868 55.40910140780832 H 0.0 **** 0.06
32809 H 55.6039765245998 2.7933508882010365 56.37266457143366 H 0.0 **** 0.06
32810 H 54.50496221814177 4.1394851867800995 55.9881540093231 H 0.0 **** 0.06
32811 C 4.243813415340753 40.875537924118476 63.88990797299142 C 0.0 **** -0.24
32812 H 4.674596046714669 41.71605087113049 64.43266219176033 H 0.0 **** 0.06
32813 H 4.544640437799423 40.92568299158351 62.84273055905547 H 0.0 **** 0.06
32814 H 3.156795892838023 40.9171425021498 63.95784805540069 H 0.0 **** 0.06
32815 H 4.599042837345834 39.94190699933585 64.32608139083717 H 0.0 **** 0.06
32816 C 18.28947718773648 71.18896360581996 124.02957284975776 C 0.0 **** -0.24
32817 H 18.681309957469807 72.13457943615683 124.40389713027076 H 0.0 **** 0.06
32818 H 17.475752925642126 71.38429424589205 123.33133818219909 H 0.0 **** 0.06
32819 H 17.91804815448083 70.59358099843979 124.8637532433209 H 0.0 **** 0.06
32820 H 19.08366958435252 70.64312202209558 123.51889941312527 H 0.0 **** 0.06
32821 C 113.9694500759209 127.89724719714263 134.0253421856507 C 0.0 **** -0.24
32822 H 112.91574667670788 127.9654045526747 134.29641529670627 H 0.0 **** 0.06
32823 H 114.06403377009532 127.40148745064802 133.05856447029302 H 0.0 **** 0.06
32824 H 114.50219240224429 127.32265288591157 134.78244775785365 H 0.0 **** 0.06
32825 H 114.39429102235492 128.8990972611229 133.962353944552 H 0.0 **** 0.06
32826 C 87.15487242666511 6.580075457904172 96.59597172299009 C 0.0 **** -0.24
32827 H 87.31071534972563 7.61365882285898 96.2872917964145 H 0.0 **** 0.06
32828 H 87.01172580329452 6.541874074192407 97.67664959808984 H 0.0 **** 0.06
32829 H 88.02656135397285 5.985047891795006 96.32390096359244 H 0.0 **** 0.06
32830 H 86.27195298992115 6.180662714144262 96.09744629431621 H 0.0 **** 0.06
32831 C 51.67410002452493 34.296362707731475 46.94087219692392 C 0.0 **** -0.24
32832 H 51.685691609137336 35.21840725991882 47.52258123146004 H 0.0 **** 0.06
32833 H 52.30005596858139 34.41717981396624 46.056356335436476 H 0.0 **** 0.06
32834 H 50.65188079695774 34.07321385221536 46.635059604151934 H 0.0 **** 0.06
32835 H 52.05810635694934 33.477736947413746 47.548878662138065 H 0.0 **** 0.06
32836 C 134.7262370293511 79.70146356941619 49.7612731713607 C 0.0 **** -0.24
32837 H 134.71150313424448 78.62460311183821 49.590476790800935 H 0.0 **** 0.06
32838 H 134.2929052789201 79.92107710708885 50.737065868537 H 0.0 **** 0.06
32839 H 134.1454251292565 80.19996100120281 48.98552919129837 H 0.0 **** 0.06
32840 H 135.75534209694743 80.05952293102584 49.730807555563686 H 0.0 **** 0.06
32841 C 77.45685584157722 49.60713896349614 97.48726168576026 C 0.0 **** -0.24
32842 H 76.96980431108945 49.85206177205629 98.43096582743225 H 0.0 **** 0.06
32843 H 77.22313920949541 50.37369882106714 96.74809428992347 H 0.0 **** 0.06
32844 H 77.09814576154272 48.64000953916607 97.13345849334647 H 0.0 **** 0.06
32845 H 78.53551653292217 49.56244622318741 97.63699331443645 H 0.0 **** 0.06
32846 C 75.30098210910091 43.313710844415255 135.41672706767244 C 0.0 **** -0.24
32847 H 75.7569633956258 43.45898571851666 136.39683024605156 H 0.0 **** 0.06
32848 H 75.5731463891749 44.143920080873556 134.76392067614617 H 0.0 **** 0.06
32849 H 74.21717667327601 43.27370593300316 135.52329281461496 H 0.0 **** 0.06
32850 H 75.65915844802242 42.3788825198323 134.9853633957056 H 0.0 **** 0.06
32851 C 67.10026507886718 139.809169829815 19.551784039005497 C 0.0 **** -0.24
32852 H 66.27838951670316 139.14954751715914 19.274538962021836 H 0.0 **** 0.06
32853 H 67.83080638695047 139.83995487328775 18.743494753588834 H 0.0 **** 0.06
32854 H 67.57680580898432 139.43424595780354 20.458585560715335 H 0.0 **** 0.06
32855 H 66.71550199779975 140.8123825433627 19.732862703668275 H 0.0 **** 0.06
32856 C 141.74276262221642 89.74384624108151 21.675004691691726 C 0.0 **** -0.24
32857 H 141.89455216852198 90.81398523346559 21.817189017099096 H 0.0 **** 0.06
32858 H 141.63554969139923 89.26079549251486 22.647334035234138 H 0.0 **** 0.06
32859 H 142.60073423572118 89.32159324082596 21.151775283025074 H 0.0 **** 0.06
32860 H 140.84098176033356 89.58077663137266 21.08602131774957 H 0.0 **** 0.06
32861 C 24.26041004017479 74.05951784070476 99.63400357772693 C 0.0 **** -0.24
32862 H 25.26592760059387 73.66215783818456 99.49734217067554 H 0.0 **** 0.06
32863 H 24.21981926824448 74.63760408360943 100.55670913354804 H 0.0 **** 0.06
32864 H 23.548988169524705 73.23595208776027 99.68811674012602 H 0.0 **** 0.06
32865 H 24.00752610306182 74.70268204649983 98.7909291874744 H 0.0 **** 0.06
32866 C 37.207512824508115 42.80614260246027 61.14487349370407 C 0.0 **** -0.24
32867 H 37.713956041834166 43.62548704660746 60.633413913076154 H 0.0 **** 0.06
32868 H 37.474798062430565 42.81654846413683 62.201369683929144 H 0.0 **** 0.06
32869 H 37.51185841002955 41.857433896738954 60.701414920320516 H 0.0 **** 0.06
32870 H 36.12886617364774 42.92538907254121 61.04168633838373 H 0.0 **** 0.06
32871 C 30.518241873010055 31.37040284732973 76.22630641999889 C 0.0 **** -0.24
32872 H 30.88502985107135 31.91002338181505 75.3518052719058 H 0.0 **** 0.06
32873 H 29.587506066821106 30.86143676191284 75.97389738739705 H 0.0 **** 0.06
32874 H 30.338298430864256 32.075269116026845 77.03777532244536 H 0.0 **** 0.06
32875 H 31.261153813159353 30.637568704270848 76.53816661654244 H 0.0 **** 0.06
32876 C 98.10139145182286 75.63839776216469 22.97295194930482 C 0.0 **** -0.24
32877 H 97.01458803775365 75.63589516306146 22.888276203047063 H 0.0 **** 0.06
32878 H 98.50012985449885 76.535341542839 22.499490844356032 H 0.0 **** 0.06
32879 H 98.5058707324557 74.7551217854724 22.477854997342405 H 0.0 **** 0.06
32880 H 98.38372837486554 75.62569009297644 24.025937845502064 H 0.0 **** 0.06
32881 C 102.00387252796772 135.98069927163064 123.0395445031576 C 0.0 **** -0.24
32882 H 101.90803986036148 136.3432781027188 122.0160120930045 H 0.0 **** 0.06
32883 H 103.04324458707433 135.71208760422073 123.23230979292116 H 0.0 **** 0.06
32884 H 101.37011794541425 135.10412423539356 123.1752804478243 H 0.0 **** 0.06
32885 H 101.69558855593019 136.76308124315716 123.7329335230703 H 0.0 **** 0.06
32886 C 61.90422457580814 45.79348740648038 99.4433569727141 C 0.0 **** -0.24
32887 H 61.6908229060071 46.711225963679325 98.89406595181055 H 0.0 **** 0.06
32888 H 61.20864210180116 45.01428831062567 99.13228998337446 H 0.0 **** 0.06
32889 H 61.79227431536111 45.976286176170944 100.5117452985634 H 0.0 **** 0.06
32890 H 62.925302413323266 45.47503225785886 99.23450955501215 H 0.0 **** 0.06
32891 C 109.53789443650514 134.0181994915176 135.21869104822187 C 0.0 **** -0.24
32892 H 108.79623606281304 133.91673009612293 136.01023363211897 H 0.0 **** 0.06
32893 H 110.5248584930262 134.15585126360227 135.66115784773967 H 0.0 **** 0.06
32894 H 109.29303515969546 134.88155903642135 134.5993880841898 H 0.0 **** 0.06
32895 H 109.5383974847634 133.11834661944218 134.6039411540778 H 0.0 **** 0.06
32896 C 122.54784417258146 141.76928818542817 57.792653868030186 C 0.0 **** -0.24
32897 H 123.46884314869422 142.03736163673605 58.31103831869257 H 0.0 **** 0.06
32898 H 122.01220525299682 142.6770552176851 57.51180705099114 H 0.0 **** 0.06
32899 H 121.92210266770654 141.16651665763953 58.45130018961186 H 0.0 **** 0.06
32900 H 122.78941843609762 141.1983276730682 56.89683312133917 H 0.0 **** 0.06
32901 C 42.73775111047078 58.82343597238335 88.21566327543636 C 0.0 **** -0.24
32902 H 41.828320513546686 59.32109653538606 87.87742978388621 H 0.0 **** 0.06
32903 H 43.57611717680791 59.516248090312956 88.15348977826898 H 0.0 **** 0.06
32904 H 42.93351271914642 57.9567496771399 87.58311824208658 H 0.0 **** 0.06
32905 H 42.61014744941659 58.49791087020097 89.24788786049271 H 0.0 **** 0.06
32906 C 3.828957274292293 51.927235986253564 117.82660221786935 C 0.0 **** -0.24
32907 H 3.8410278115590017 50.87323201736345 117.54896966539374 H 0.0 **** 0.06
32908 H 3.218039760727379 52.482504208783 117.11362468194082 H 0.0 **** 0.06
32909 H 4.845721021639918 52.318142753886036 117.81563782658341 H 0.0 **** 0.06
32910 H 3.408435760364455 52.035100722116425 118.8266886017619 H 0.0 **** 0.06
32911 C 81.7443498905015 26.973126513018883 75.24768296966477 C 0.0 **** -0.24
32912 H 81.26734358836586 27.233022842675553 76.19239496724333 H 0.0 **** 0.06
32913 H 81.57364485993804 27.770228304577415 74.524093706032 H 0.0 **** 0.06
32914 H 81.32105941224032 26.042753273643598 74.86995201463128 H 0.0 **** 0.06
32915 H 82.81569748861307 26.847872746241535 75.40426748221498 H 0.0 **** 0.06
32916 C 8.777367126363693 19.714590051310125 36.191645164663186 C 0.0 **** -0.24
32917 H 8.446032123487651 19.18337710245902 35.29938969972008 H 0.0 **** 0.06
32918 H 8.259662964646232 19.318130834242325 37.065034185862714 H 0.0 **** 0.06
32919 H 8.553276137032988 20.776229717370086 36.08717818889639 H 0.0 **** 0.06
32920 H 9.852678165916629 19.581109763853703 36.3148974664567 H 0.0 **** 0.06
32921 C 124.95069193990722 96.01170687728626 105.45058162954028 C 0.0 **** -0.24
32922 H 124.77381022168439 96.01139462347703 106.52610227257894 H 0.0 **** 0.06
32923 H 124.69556751636796 95.03374463915549 105.04070805567004 H 0.0 **** 0.06
32924 H 126.00132565004176 96.2259043706058 105.25647056254347 H 0.0 **** 0.06
32925 H 124.33129494380862 96.7762144420659 104.98110057558362 H 0.0 **** 0.06
32926 C 28.483308301140767 65.68219330182075 144.10835390026295 C 0.0 **** -0.24
32927 H 27.881106484157215 64.84100145106282 144.45179260304423 H 0.0 **** 0.06
32928 H 29.376128539465867 65.30840558564766 143.60668799582507 H 0.0 **** 0.06
32929 H 28.775288858368754 66.29255343580947 144.96326020020754 H 0.0 **** 0.06
32930 H 27.901195776065208 66.28545371483703 143.4126321727939 H 0.0 **** 0.06
32931 C 28.410488602744863 20.930159536401796 137.80924845856603 C 0.0 **** -0.24
32932 H 28.100782921419068 20.333391384043274 138.66771459041232 H 0.0 **** 0.06
32933 H 27.651554313465 20.863064008565985 137.0281646351966 H 0.0 **** 0.06
32934 H 29.358957697289725 20.552212069977728 137.42737545239623 H 0.0 **** 0.06
32935 H 28.52807939130065 21.97000881008656 138.11303581881506 H 0.0 **** 0.06
32936 C 56.46547390605414 95.03248539624816 121.44621690404001 C 0.0 **** -0.24
32937 H 56.42987306846945 95.49670626601518 120.46007770975437 H 0.0 **** 0.06
32938 H 56.048842039817345 95.71730274731634 122.18492928833562 H 0.0 **** 0.06
32939 H 57.49936768948655 94.80497161297107 121.70318180333759 H 0.0 **** 0.06
32940 H 55.88232417836039 94.11103549406724 121.4340752086752 H 0.0 **** 0.06
32941 C 97.21378098111299 87.86844398312539 137.88887655193224 C 0.0 **** -0.24
32942 H 97.49450871001265 86.81431237193169 137.88676276780856 H 0.0 **** 0.06
32943 H 97.146997449466 88.22844956798139 136.86182939157484 H 0.0 **** 0.06
32944 H 97.96725107043349 88.44314730787846 138.42737892365744 H 0.0 **** 0.06
32945 H 96.247365331421 87.98586628794243 138.37949830672164 H 0.0 **** 0.06
32946 C 38.7663005559001 111.6395888419608 47.224168343561075 C 0.0 **** -0.24
32947 H 39.156286289560114 110.7938018249377 47.78896677952531 H 0.0 **** 0.06
32948 H 38.2050270276041 111.27431834714798 46.36427103661282 H 0.0 **** 0.06
32949 H 39.593921199545264 112.25988695524745 46.880875182703505 H 0.0 **** 0.06
32950 H 38.10988023612737 112.23175241663995 47.86241641142817 H 0.0 **** 0.06
32951 C 64.78244805874337 114.85267063876825 92.1115022707307 C 0.0 **** -0.24
32952 H 65.61689232369542 115.55256877673821 92.08382177273327 H 0.0 **** 0.06
32953 H 64.15541278785011 115.06801659555703 92.9771140868457 H 0.0 **** 0.06
32954 H 65.1645362992834 113.83369660656524 92.1850785230939 H 0.0 **** 0.06
32955 H 64.19202262428539 114.95426043212092 91.20074202238987 H 0.0 **** 0.06
32956 C 34.885775927021996 68.23896411414117 103.00777913121954 C 0.0 **** -0.24
32957 H 33.980678157561556 68.71572943557928 102.63117487911302 H 0.0 **** 0.06
32958 H 35.53385431243592 67.97733046634939 102.17208535831764 H 0.0 **** 0.06
32959 H 34.61903279079314 67.33679570476653 103.55797286294853 H 0.0 **** 0.06
32960 H 35.408813353553 68.92723071449296 103.67187388529061 H 0.0 **** 0.06
32961 C 50.79267520825982 33.70443645357656 0.17067180857594622 C 0.0 **** -0.24
32962 H 51.47094710966104 34.27724308718756 0.8021491503756977 H 0.0 **** 0.06
32963 H 50.67954711094848 32.69954451730454 0.5774815015893751 H 0.0 **** 0.06
32964 H 51.20112101359814 33.64356485376649 -0.8389304122633519 H 0.0 **** 0.06
32965 H 49.82155105297835 34.19756711089788 0.14001423462582352 H 0.0 **** 0.06
32966 C 99.98382669310953 142.6167864495754 73.39808971945979 C 0.0 **** -0.24
32967 H 100.31693172842432 142.1286720216583 74.31342965176988 H 0.0 **** 0.06
32968 H 100.83405949852352 142.75399319880594 72.72970031434683 H 0.0 **** 0.06
32969 H 99.55231107047129 143.58807577672596 73.641778549131 H 0.0 **** 0.06
32970 H 99.23220034813033 141.99834398227696 72.90854645954904 H 0.0 **** 0.06
32971 C 116.58812586266585 90.09711283638396 34.41110631192839 C 0.0 **** -0.24
32972 H 116.1063024284097 89.8976047665003 33.45449585872228 H 0.0 **** 0.06
32973 H 115.97457137364172 89.69610895239242 35.21816497897069 H 0.0 **** 0.06
32974 H 116.70296902400155 91.17335265636379 34.54247914951861 H 0.0 **** 0.06
32975 H 117.56894768808787 89.62192694636931 34.430075134010565 H 0.0 **** 0.06
32976 C 110.07194178768678 77.47284374696835 0.592255910138558 C 0.0 **** -0.24
32977 H 109.44053735209708 77.79273410048881 1.4209660416041956 H 0.0 **** 0.06
32978 H 110.85442313933417 76.81173962961554 0.9667412117063563 H 0.0 **** 0.06
32979 H 110.52659178301208 78.3460732324362 0.12331392082974446 H 0.0 **** 0.06
32980 H 109.46648568537766 76.94010864845018 -0.14135784379552163 H 0.0 **** 0.06
32981 C 64.83837210977278 56.15894985021383 120.1876189798691 C 0.0 **** -0.24
32982 H 64.49368582379573 55.216302817831775 119.7624356828009 H 0.0 **** 0.06
32983 H 64.03454452034536 56.61114397194325 120.76919925119968 H 0.0 **** 0.06
32984 H 65.12947291355196 56.83507795923606 119.38283822564803 H 0.0 **** 0.06
32985 H 65.69633412145366 55.973911922377326 120.83393085985612 H 0.0 **** 0.06
32986 C 105.53972175921713 126.09154648951956 103.44385792054047 C 0.0 **** -0.24
32987 H 104.84049120367894 126.92714508256138 103.39943312489984 H 0.0 **** 0.06
32988 H 105.80587156277518 125.89694825438286 104.48274083026118 H 0.0 **** 0.06
32989 H 106.4368182512771 126.33875899679565 102.87789972975347 H 0.0 **** 0.06
32990 H 105.07216975701695 125.20455131027967 103.01547070355556 H 0.0 **** 0.06
32991 C 137.92552121083614 23.097030560370854 117.53435283894822 C 0.0 **** -0.24
32992 H 137.5337377110579 23.050042575754333 118.55073944996326 H 0.0 **** 0.06
32993 H 138.96783680729447 23.415497808827922 117.56153236085072 H 0.0 **** 0.06
32994 H 137.3417742460726 23.81135441064481 116.95386010892128 H 0.0 **** 0.06
32995 H 137.85705853960428 22.111836152210117 117.07295741132532 H 0.0 **** 0.06
32996 C 41.617189050956966 117.68965353219181 14.073609148585803 C 0.0 **** -0.24
32997 H 41.37452368836448 118.4996753926161 14.762244068951503 H 0.0 **** 0.06
32998 H 42.617267410254925 117.31485388758705 14.293460088573994 H 0.0 **** 0.06
32999 H 41.585094281959584 118.06034027432929 13.049862064926486 H 0.0 **** 0.06
33000 H 40.89344481374978 116.88314586855853 14.192211736427765 H 0.0 **** 0.06
33001 C 42.68466178779096 12.170275206230258 79.44720016918822 C 0.0 **** -0.24
33002 H 41.86623494110677 11.857334552803422 78.7993371332491 H 0.0 **** 0.06
33003 H 43.63651536847834 11.922777155261457 78.97564058686713 H 0.0 **** 0.06
33004 H 42.60752744136312 11.653968881860294 80.40444621945176 H 0.0 **** 0.06
33005 H 42.62757177770908 13.245898606216656 79.60970205945955 H 0.0 **** 0.06
33006 C 64.48755343888308 87.01993628876244 13.322814677910287 C 0.0 **** -0.24
33007 H 64.5304255680744 85.95966533678313 13.071091732938612 H 0.0 **** 0.06
33008 H 64.57885029418065 87.61315382897675 12.41261977757938 H 0.0 **** 0.06
33009 H 65.30382520117479 87.26619945728913 14.001159512352785 H 0.0 **** 0.06
33010 H 63.534676477468054 87.23914381845486 13.805639177430749 H 0.0 **** 0.06
33011 C 121.57238470180198 117.7898261703502 124.19229035106682 C 0.0 **** -0.24
33012 H 122.11631004454841 116.88313311442958 124.45738811717604 H 0.0 **** 0.06
33013 H 121.03281504161305 118.15784658772809 125.06473028262403 H 0.0 **** 0.06
33014 H 120.86506156664007 117.56794527163878 123.3926149258674 H 0.0 **** 0.06
33015 H 122.27806365475311 118.54926691450713 123.85378788290268 H 0.0 **** 0.06
33016 C 76.65004526014411 143.82022576864404 117.86219774861058 C 0.0 **** -0.24
33017 H 77.72776065755315 143.81916999957332 117.7017070454267 H 0.0 **** 0.06
33018 H 76.34306012922569 144.7880583853861 118.25856254179905 H 0.0 **** 0.06
33019 H 76.38750577806641 143.03625914382684 118.57311214858811 H 0.0 **** 0.06
33020 H 76.14162578610164 143.6365814657906 116.91490720754553 H 0.0 **** 0.06
33021 C 140.8370995667297 125.00613273141235 93.05004507570825 C 0.0 **** -0.24
33022 H 141.74151686971356 124.61882780414513 92.58095859315702 H 0.0 **** 0.06
33023 H 140.35735762305512 125.7210307418159 92.38045829038589 H 0.0 **** 0.06
33024 H 141.09785620038545 125.50296369110131 93.98498566681621 H 0.0 **** 0.06
33025 H 140.1521670611562 124.18351504963786 93.25499750265729 H 0.0 **** 0.06
33026 C 84.22766787902628 131.1811057867446 133.6391061880115 C 0.0 **** -0.24
33027 H 83.4717963982601 131.58702176194643 134.3112195793832 H 0.0 **** 0.06
33028 H 84.34777400445302 130.11428649824168 133.83159537036266 H 0.0 **** 0.06
33029 H 85.17606810570817 131.69025257595254 133.80929559449058 H 0.0 **** 0.06
33030 H 83.91425953933327 131.3304376844807 132.60666441161413 H 0.0 **** 0.06
33031 C 102.04013867535578 76.96460994660717 27.964296987211412 C 0.0 **** -0.24
33032 H 102.91149671462139 77.48133768389826 28.36650278864107 H 0.0 **** 0.06
33033 H 102.07313405964484 75.9149902246829 28.256506917985178 H 0.0 **** 0.06
33034 H 102.04478113283714 77.03851331916022 26.875843162826868 H 0.0 **** 0.06
33035 H 101.13273571143165 77.42290528170676 28.355175562029046 H 0.0 **** 0.06
33036 C 98.09247497032547 2.3976660127583216 118.63855289574185 C 0.0 **** -0.24
33037 H 98.55027437335252 3.2042306730320114 118.06493795691217 H 0.0 **** 0.06
33038 H 97.19028201419951 2.0568132513527146 118.12921486951224 H 0.0 **** 0.06
33039 H 97.83368357484028 2.7614621580540053 119.63234121513453 H 0.0 **** 0.06
33040 H 98.79535871229457 1.5697471581802773 118.72587797267413 H 0.0 **** 0.06
33041 C 61.47843200165637 99.11090341333477 141.4879465136541 C 0.0 **** -0.24
33042 H 61.03526328516347 100.10586268249199 141.493808466546 H 0.0 **** 0.06
33043 H 62.518817900877536 99.17848166448087 141.16835880905046 H 0.0 **** 0.06
33044 H 60.92662300928308 98.47170709747718 140.79799590267046 H 0.0 **** 0.06
33045 H 61.433253016711674 98.68660688722494 142.49060556972785 H 0.0 **** 0.06
33046 C 6.73021428429368 95.97184024807451 9.376138689008194 C 0.0 **** -0.24
33047 H 7.480216672855789 95.42604472191796 9.948461631535508 H 0.0 **** 0.06
33048 H 5.765828015056314 95.89666363917524 9.878485675756359 H 0.0 **** 0.06
33049 H 6.654963033856745 95.54434637132073 8.376070616015511 H 0.0 **** 0.06
33050 H 7.021712020550439 97.01961783613827 9.3025649344873 H 0.0 **** 0.06
33051 C 71.04410323468966 144.278639084981 8.556258742209724 C 0.0 **** -0.24
33052 H 70.18638744625437 144.48452394402875 7.9154998399246566 H 0.0 **** 0.06
33053 H 71.92983810857609 144.76274920773125 8.144602296287445 H 0.0 **** 0.06
33054 H 71.20868289082759 143.20272062183022 8.609087395259426 H 0.0 **** 0.06
33055 H 70.85016341478644 144.66632315810529 9.5561648806016 H 0.0 **** 0.06
33056 C 123.87459644016667 25.7039883911942 68.3678596343427 C 0.0 **** -0.24
33057 H 122.98973963038426 25.834457799212345 68.9906774625704 H 0.0 **** 0.06
33058 H 123.68806960293604 26.125288360040116 67.37930157628259 H 0.0 **** 0.06
33059 H 124.0987457557579 24.641513631829042 68.27358683212793 H 0.0 **** 0.06
33060 H 124.72128770849113 26.213924869811336 68.82753515643151 H 0.0 **** 0.06
33061 C 90.83721791041307 36.456517213240005 99.92826707635177 C 0.0 **** -0.24
33062 H 90.48371169293989 36.23880200644169 100.93672103845432 H 0.0 **** 0.06
33063 H 91.9196795508193 36.326943128745626 99.88779066860306 H 0.0 **** 0.06
33064 H 90.58348558726357 37.48389019280884 99.66897858463444 H 0.0 **** 0.06
33065 H 90.36349271338912 35.774872810292464 99.22263105622802 H 0.0 **** 0.06
33066 C 80.15260735519095 43.31613289110672 137.59282530155315 C 0.0 **** -0.24
33067 H 80.33725875903693 43.066160918561124 138.63852451945712 H 0.0 **** 0.06
33068 H 81.07606527900444 43.674125437128765 137.13722491311447 H 0.0 **** 0.06
33069 H 79.3919321779774 44.09442194955719 137.53488312437122 H 0.0 **** 0.06
33070 H 79.80577371450832 42.42884724891269 137.0634412266124 H 0.0 **** 0.06
33071 C 96.06257830239929 99.3981199594789 50.02439843074774 C 0.0 **** -0.24
33072 H 96.4321307134956 99.81835129794658 50.95997875881994 H 0.0 **** 0.06
33073 H 95.71878724529778 98.3783637010948 50.19645005455766 H 0.0 **** 0.06
33074 H 96.86475234112508 99.3919330833947 49.2875779930892 H 0.0 **** 0.06
33075 H 95.23517605145506 100.00416822500114 49.65634425175267 H 0.0 **** 0.06
33076 C 15.033795656006319 18.68878543877139 30.371715233408025 C 0.0 **** -0.24
33077 H 15.069924525152942 17.60872401858697 30.514080713849097 H 0.0 **** 0.06
33078 H 14.258198404444862 18.933354823672005 29.645844981683354 H 0.0 **** 0.06
33079 H 15.998907484868994 19.037947210250934 30.004474009240823 H 0.0 **** 0.06
33080 H 14.809917973352242 19.172569961439848 31.321827417282606 H 0.0 **** 0.06
33081 C 115.4013341845987 39.13475251664554 106.65780914113044 C 0.0 **** -0.24
33082 H 115.73398904499886 39.01466759705569 107.68901681583692 H 0.0 **** 0.06
33083 H 116.2612334996358 39.073775647824895 105.98905209599239 H 0.0 **** 0.06
33084 H 114.91992031020267 40.10575224966327 106.54213679745057 H 0.0 **** 0.06
33085 H 114.6918533183236 38.34580621407695 106.40990695990293 H 0.0 **** 0.06
33086 C 55.96202464652686 5.780872894726951 131.7359686082923 C 0.0 **** -0.24
33087 H 55.280471311424606 5.93318975616236 132.57368609169214 H 0.0 **** 0.06
33088 H 56.65306436908442 4.9719063553210106 131.97313973052687 H 0.0 **** 0.06
33089 H 56.52264528280554 6.697708651932814 131.55321850374926 H 0.0 **** 0.06
33090 H 55.389858356884986 5.520994693019173 130.84574452220454 H 0.0 **** 0.06
33091 C 126.84187640528185 68.32627238442103 74.93914102326812 C 0.0 **** -0.24
33092 H 127.52891380238631 68.60848047152561 74.14208390037204 H 0.0 **** 0.06
33093 H 127.27547825554612 68.5914678419714 75.90382632868874 H 0.0 **** 0.06
33094 H 126.66463741459407 67.25134422434678 74.90236204611433 H 0.0 **** 0.06
33095 H 125.89656812962332 68.85386860222695 74.80712796434621 H 0.0 **** 0.06
33096 C 32.368446862820676 85.03544031308434 4.139307191653302 C 0.0 **** -0.24
33097 H 32.95854519587148 84.1192485383753 4.161181507403398 H 0.0 **** 0.06
33098 H 31.53535162803786 84.94783033294463 4.83662111794456 H 0.0 **** 0.06
33099 H 31.984966237113 85.19658367133123 3.1318334595039232 H 0.0 **** 0.06
33100 H 32.996265803635964 85.8791931824516 4.427646259435733 H 0.0 **** 0.06
33101 C 96.9114225132372 26.11252141332899 99.8914793344797 C 0.0 **** -0.24
33102 H 96.05472686468534 25.454608663375524 99.74001862620503 H 0.0 **** 0.06
33103 H 97.78049407072041 25.700349366854965 99.3799388438297 H 0.0 **** 0.06
33104 H 97.12060218044098 26.196429053033057 100.95804029477253 H 0.0 **** 0.06
33105 H 96.6849100960012 27.099836980934697 99.48755230931599 H 0.0 **** 0.06
33106 C 137.01334321665377 112.2596808887956 77.77529061494043 C 0.0 **** -0.24
33107 H 137.08508017386157 113.31507092265062 78.0378388469388 H 0.0 **** 0.06
33108 H 137.48141186154768 111.65917988716464 78.55598788924898 H 0.0 **** 0.06
33109 H 137.52233961094925 112.08567698496623 76.82826784558763 H 0.0 **** 0.06
33110 H 135.96413777234022 111.97876607929416 77.6814837858699 H 0.0 **** 0.06
33111 C 141.0187258421023 53.51904946409687 48.903440898123336 C 0.0 **** -0.24
33112 H 140.7941650001004 53.40080593528094 49.96316905350716 H 0.0 **** 0.06
33113 H 141.68078079922387 52.715632924942696 48.580618980177974 H 0.0 **** 0.06
33114 H 141.5076036724987 54.47963494969579 48.74084972115361 H 0.0 **** 0.06
33115 H 140.0936707658261 53.480420355779785 48.32870376709019 H 0.0 **** 0.06
33116 C 60.1557307227211 19.569642067687 123.03012672882176 C 0.0 **** -0.24
33117 H 59.40323352343458 19.376364392180044 122.26461208626223 H 0.0 **** 0.06
33118 H 60.54234713823527 18.622329040262635 123.40633635801447 H 0.0 **** 0.06
33119 H 59.70562247561256 20.130644213337042 123.84913958275516 H 0.0 **** 0.06
33120 H 60.97201859524969 20.1493834021842 122.59799244747002 H 0.0 **** 0.06
33121 C 95.40820231761226 113.4866391942519 34.325131740540826 C 0.0 **** -0.24
33122 H 95.02137197318383 113.66416920293062 35.327913978611036 H 0.0 **** 0.06
33123 H 96.19005167612733 114.21294811702751 34.10381564931407 H 0.0 **** 0.06
33124 H 94.60014845834701 113.58910927301878 33.60113055323092 H 0.0 **** 0.06
33125 H 95.82081182912763 112.47919267298954 34.268901807708744 H 0.0 **** 0.06
33126 C 125.16050126969714 79.81087917041258 90.34610599841793 C 0.0 **** -0.24
33127 H 126.01922870742129 80.39323722801467 90.01152089074273 H 0.0 **** 0.06
33128 H 124.5703686891083 80.40283506558409 91.04514649653314 H 0.0 **** 0.06
33129 H 125.50930609723889 78.9038739067431 90.84092979250008 H 0.0 **** 0.06
33130 H 124.54641915674563 79.5420967664285 89.48591989942994 H 0.0 **** 0.06
33131 C 79.17553760483736 17.268615605245174 134.75182506585554 C 0.0 **** -0.24
33132 H 79.93811956205553 16.50301104069598 134.90048702822781 H 0.0 **** 0.06
33133 H 78.27971819507246 16.811761602347218 134.33253774929605 H 0.0 **** 0.06
33134 H 79.55266086242767 18.027194160091653 134.06569495006667 H 0.0 **** 0.06
33135 H 78.93448467281792 17.731090558677096 135.7085477336822 H 0.0 **** 0.06
33136 C 3.4212809535545716 46.38963052147358 31.11657337338645 C 0.0 **** -0.24
33137 H 2.8013845791344636 46.64721855228453 30.25737443235689 H 0.0 **** 0.06
33138 H 3.981325558411072 47.26891835877069 31.436437219713902 H 0.0 **** 0.06
33139 H 4.115647085457965 45.59692096692072 30.83813463398689 H 0.0 **** 0.06
33140 H 2.7851568270433233 46.04676904430187 31.932422003400518 H 0.0 **** 0.06
33141 C 30.255787088246393 1.105586686318901 94.40621398372697 C 0.0 **** -0.24
33142 H 29.885509151828273 1.0259347064573774 93.38363941319552 H 0.0 **** 0.06
33143 H 31.345054211755553 1.1461057744875518 94.39581013175714 H 0.0 **** 0.06
33144 H 29.928925803200173 0.23823913212166303 94.97888297391813 H 0.0 **** 0.06
33145 H 29.86252906588811 2.0133415249595146 94.86476301458096 H 0.0 **** 0.06
33146 C 114.88553657138947 22.151031617109915 132.31962793547498 C 0.0 **** -0.24
33147 H 114.89315263502344 22.428145268523714 133.37405618858014 H 0.0 **** 0.06
33148 H 113.88140128859517 22.28292000481418 131.9165452071343 H 0.0 **** 0.06
33149 H 115.18520863601863 21.108529947157045 132.21584071607717 H 0.0 **** 0.06
33150 H 115.5834794289125 22.78629812822414 131.7728929085793 H 0.0 **** 0.06
33151 C 75.30094579061414 100.41999477477434 118.8948690389236 C 0.0 **** -0.24
33152 H 76.22802609060192 100.92537389778305 119.16448345418236 H 0.0 **** 0.06
33153 H 75.418904491809 99.94041279051397 117.92251477340288 H 0.0 **** 0.06
33154 H 74.4915938285377 101.1475418642497 118.84577247084935 H 0.0 **** 0.06
33155 H 75.06731391956748 99.66536860259687 119.64634053803728 H 0.0 **** 0.06
33156 C 64.31276964168917 78.12183546575721 18.1187592433555 C 0.0 **** -0.24
33157 H 64.61575703538618 78.61064825714713 17.19248357278218 H 0.0 **** 0.06
33158 H 64.92949359794048 78.48575790233218 18.94041726830278 H 0.0 **** 0.06
33159 H 64.4404041645478 77.04330644445787 18.018726562583595 H 0.0 **** 0.06
33160 H 63.26608416870738 78.34569509228491 18.322502327092934 H 0.0 **** 0.06
33161 C 131.08425369262915 111.50727997848192 116.2813342312207 C 0.0 **** -0.24
33162 H 131.05851714185792 110.73765171165006 115.50848757600455 H 0.0 **** 0.06
33163 H 131.87172278237105 111.27394475300245 116.9985734104536 H 0.0 **** 0.06
33164 H 130.12245069658934 111.53955745905843 116.7934036279536 H 0.0 **** 0.06
33165 H 131.28500004411313 112.47568709015455 115.82255924718827 H 0.0 **** 0.06
33166 C 119.08811914757466 71.67406382395484 45.223177348775366 C 0.0 **** -0.24
33167 H 119.90937488040196 72.38296086611581 45.32697468406933 H 0.0 **** 0.06
33168 H 119.3951783537345 70.70480991712463 45.61617277876347 H 0.0 **** 0.06
33169 H 118.82689117374794 71.57318686531869 44.169490153137275 H 0.0 **** 0.06
33170 H 118.22398965337739 72.03529983481184 45.77956803926267 H 0.0 **** 0.06
33171 C 63.65401829160774 95.0153627640093 106.34108030969286 C 0.0 **** -0.24
33172 H 62.79574067974738 95.23200191283784 106.97719737568356 H 0.0 **** 0.06
33173 H 64.00231151374653 94.00092608707718 106.53331954420774 H 0.0 **** 0.06
33174 H 64.45446640550487 95.72297314635378 106.55824679311222 H 0.0 **** 0.06
33175 H 63.362805273363904 95.1076447915465 105.2945326887919 H 0.0 **** 0.06
33176 C 124.00372493730879 61.24713861959128 95.46638792433038 C 0.0 **** -0.24
33177 H 123.33645266212545 62.077614200832954 95.2346554498584 H 0.0 **** 0.06
33178 H 124.37397230294698 60.81042106395125 94.5395742948001 H 0.0 **** 0.06
33179 H 123.45944444178485 60.49166650592679 96.03256413303518 H 0.0 **** 0.06
33180 H 124.84353492032369 61.610792364025656 96.05879914918029 H 0.0 **** 0.06
33181 C 121.82043528354866 135.4865735212176 67.78217368570321 C 0.0 **** -0.24
33182 H 120.7969957236427 135.85346134970254 67.85707805816472 H 0.0 **** 0.06
33183 H 122.00828876899477 134.76832741074267 68.58104760842903 H 0.0 **** 0.06
33184 H 122.51416712088233 136.32208129225586 67.87339199205277 H 0.0 **** 0.06
33185 H 121.96188538415267 135.00116538621344 66.8160578812913 H 0.0 **** 0.06
33186 C 102.32675119704643 89.61781821520343 128.18083962522564 C 0.0 **** -0.24
33187 H 101.39145749695436 89.05736797009547 128.17499589733518 H 0.0 **** 0.06
33188 H 103.11091912071998 89.01916304714008 127.71801511425994 H 0.0 **** 0.06
33189 H 102.6040314981372 89.8481415869901 129.20962127610198 H 0.0 **** 0.06
33190 H 102.19787233263165 90.5447646108629 127.6234112018486 H 0.0 **** 0.06
33191 C 112.62345569640465 124.83912486309106 37.37945680426847 C 0.0 **** -0.24
33192 H 111.82120980981952 125.57651658450897 37.429944043485904 H 0.0 **** 0.06
33193 H 112.79577389452456 124.56212265007338 36.339123619250984 H 0.0 **** 0.06
33194 H 112.34050823776985 123.95504276400294 37.950077902494655 H 0.0 **** 0.06
33195 H 113.53519946493853 125.26541025223383 37.797682766537974 H 0.0 **** 0.06
33196 C 114.8416383891272 83.44388478579921 10.3886132482547 C 0.0 **** -0.24
33197 H 115.33313267248529 84.10249276239924 9.673024841251731 H 0.0 **** 0.06
33198 H 114.76047200026547 82.44286534107991 9.963226307145248 H 0.0 **** 0.06
33199 H 113.84578056821961 83.82689913283383 10.60978529453996 H 0.0 **** 0.06
33200 H 115.4283954571555 83.40237374586266 11.305833962203593 H 0.0 **** 0.06
33201 C 65.02399128570019 128.75892813962074 100.78870023489355 C 0.0 **** -0.24
33202 H 64.59978561789315 129.42624462226715 100.03836753086284 H 0.0 **** 0.06
33203 H 65.72341788210213 128.07276303892738 100.3102048582125 H 0.0 **** 0.06
33204 H 64.22409922427933 128.18939332244346 101.26286868509919 H 0.0 **** 0.06
33205 H 65.54779511531518 129.3454110222518 101.5425624298905 H 0.0 **** 0.06
33206 C 121.95220961046913 4.830879243822636 94.7266685850281 C 0.0 **** -0.24
33207 H 122.21834803581469 3.889413664014313 95.20736163010979 H 0.0 **** 0.06
33208 H 122.7867485943892 5.176211308762845 94.11686999357015 H 0.0 **** 0.06
33209 H 121.72626479935674 5.576512963257244 95.48971854802056 H 0.0 **** 0.06
33210 H 121.07652718040647 4.681390111731304 94.09417255640918 H 0.0 **** 0.06
33211 C 84.93523449427462 119.5472931618568 19.83349487434765 C 0.0 **** -0.24
33212 H 84.48015375364126 120.53197856036567 19.943290641895487 H 0.0 **** 0.06
33213 H 84.15686769105967 118.8071206887877 19.64600151592191 H 0.0 **** 0.06
33214 H 85.46953158168937 119.29000378854673 20.748795238094374 H 0.0 **** 0.06
33215 H 85.63370485118152 119.56067017858211 18.996312607562174 H 0.0 **** 0.06
33216 C 94.28297159176594 143.87554543520116 64.31446652716632 C 0.0 **** -0.24
33217 H 93.27003650795254 143.47376555571995 64.29893193577666 H 0.0 **** 0.06
33218 H 94.43361809367882 144.5156240319581 63.44398849395992 H 0.0 **** 0.06
33219 H 94.99941100261964 143.0538769139324 64.28945953722621 H 0.0 **** 0.06
33220 H 94.4291157252292 144.45832928337822 65.22359674294034 H 0.0 **** 0.06
33221 C 36.38705326726574 129.46756991143715 83.49416870799946 C 0.0 **** -0.24
33222 H 35.99338320750516 128.46576815907503 83.32209885792817 H 0.0 **** 0.06
33223 H 37.41969583913962 129.51488479841868 83.14962047955382 H 0.0 **** 0.06
33224 H 36.34681419442933 129.69573425852505 84.55852000109809 H 0.0 **** 0.06
33225 H 35.786957010982405 130.19210008128496 82.94400019110314 H 0.0 **** 0.06
33226 C 33.98001123182701 69.81329567240633 80.42802415699481 C 0.0 **** -0.24
33227 H 34.3351333318044 69.84339963478513 79.39765190997548 H 0.0 **** 0.06
33228 H 34.72542619163761 69.32162040391798 81.05370210738658 H 0.0 **** 0.06
33229 H 33.04311519269294 69.25814806886633 80.47296680205199 H 0.0 **** 0.06
33230 H 33.81849700104931 70.83023124132058 80.78592373593119 H 0.0 **** 0.06
33231 C 19.796922780624072 33.89059695246749 90.15572063860583 C 0.0 **** -0.24
33232 H 19.878196900474222 32.807859124465836 90.05402373286174 H 0.0 **** 0.06
33233 H 19.91905104461688 34.3564981808525 89.17759096632719 H 0.0 **** 0.06
33234 H 20.574023344356306 34.25070350636008 90.82926561986974 H 0.0 **** 0.06
33235 H 18.817901700655 34.144607034642775 90.56015658248364 H 0.0 **** 0.06
33236 C 91.57555526751119 19.55823000276129 113.24144924471099 C 0.0 **** -0.24
33237 H 92.32918770526642 20.221875830749582 112.81585516343861 H 0.0 **** 0.06
33238 H 91.59278454592726 19.638899168983613 114.32812928753353 H 0.0 **** 0.06
33239 H 91.7915864890268 18.5300013487971 112.94911844104783 H 0.0 **** 0.06
33240 H 90.59046044066521 19.842351574829422 112.87052062890447 H 0.0 **** 0.06
33241 C 97.5360565610542 121.26181298849382 139.0190412472252 C 0.0 **** -0.24
33242 H 96.94231834329803 120.35196753124156 139.10196911113744 H 0.0 **** 0.06
33243 H 97.73379033095169 121.47133908102766 137.96798556248737 H 0.0 **** 0.06
33244 H 98.47980739605772 121.12960570031412 139.54790368618396 H 0.0 **** 0.06
33245 H 96.98616664028619 122.09525828453438 139.4590560425123 H 0.0 **** 0.06
33246 C 97.0542048402787 44.99730399203008 124.50202761831429 C 0.0 **** -0.24
33247 H 97.03958449320447 44.22431805249633 123.73356168798085 H 0.0 **** 0.06
33248 H 96.0324872287976 45.21944330334151 124.81298296191221 H 0.0 **** 0.06
33249 H 97.51600047029221 45.90004124768842 124.10045545962626 H 0.0 **** 0.06
33250 H 97.62736076305171 44.64651053785798 125.35941497234771 H 0.0 **** 0.06
33251 C 112.2119466428859 79.44288321059426 84.90968473011637 C 0.0 **** -0.24
33252 H 112.70341275816186 78.4717055434073 84.95876477099009 H 0.0 **** 0.06
33253 H 112.95836655705078 80.2201557131772 84.74408372824226 H 0.0 **** 0.06
33254 H 111.68902206902307 79.6329810692848 85.84668930167291 H 0.0 **** 0.06
33255 H 111.49642316605325 79.44616603001941 84.08687532762522 H 0.0 **** 0.06
33256 C 51.10607807623333 26.672867626152538 50.44624904051595 C 0.0 **** -0.24
33257 H 50.1560278462681 26.311016762977204 50.05201630867805 H 0.0 **** 0.06
33258 H 51.86390570801481 25.897737290772284 50.33260425358735 H 0.0 **** 0.06
33259 H 50.99080857256811 26.916135853730452 51.50208537748716 H 0.0 **** 0.06
33260 H 51.41174372944468 27.564200610437354 49.89827831201259 H 0.0 **** 0.06
33261 C 122.7374811439325 14.134943192925931 95.057606505839 C 0.0 **** -0.24
33262 H 122.2603305902066 14.257116031971094 94.08545527052759 H 0.0 **** 0.06
33263 H 122.02691234226945 13.697210424828683 95.75920676740331 H 0.0 **** 0.06
33264 H 123.06129480382121 15.108407430361325 95.42732807091764 H 0.0 **** 0.06
33265 H 123.60148613892807 13.478536381034786 94.95677824678545 H 0.0 **** 0.06
33266 C 79.06202912524765 40.515507622495164 53.85433135820463 C 0.0 **** -0.24
33267 H 79.48987559878874 41.401377225788025 53.385444038367524 H 0.0 **** 0.06
33268 H 78.53853026597477 39.923290485846074 53.10405095333138 H 0.0 **** 0.06
33269 H 78.36052576797346 40.81948100515468 54.63137584061107 H 0.0 **** 0.06
33270 H 79.85913911804018 39.91883492511891 54.29790012441603 H 0.0 **** 0.06
33271 C 98.03610065562196 132.62216322543634 59.3534927118817 C 0.0 **** -0.24
33272 H 98.56540933290815 131.74612902679394 59.728442451514184 H 0.0 **** 0.06
33273 H 98.74811209400508 133.43157756994762 59.185266293561654 H 0.0 **** 0.06
33274 H 97.29268203223039 132.93814039667868 60.085941422042936 H 0.0 **** 0.06
33275 H 97.53989645852637 132.37366278896795 58.41549760990398 H 0.0 **** 0.06
33276 C 90.9889889705337 44.56984073829126 71.7349566942519 C 0.0 **** -0.24
33277 H 92.0543165070042 44.46148650426606 71.93892116059399 H 0.0 **** 0.06
33278 H 90.76458210778901 45.614028975471015 71.51944720647765 H 0.0 **** 0.06
33279 H 90.41786715520452 44.246966831402716 72.60598956012987 H 0.0 **** 0.06
33280 H 90.71865586685068 43.955257995697394 70.87575473774646 H 0.0 **** 0.06
33281 C 2.3988896294035555 54.94867456586675 43.626573701719195 C 0.0 **** -0.24
33282 H 2.163075271857565 53.96885311787223 43.213922128611586 H 0.0 **** 0.06
33283 H 3.1198218096260177 54.83746885952257 44.43745843221882 H 0.0 **** 0.06
33284 H 1.4893302856534092 55.411004717848485 44.010382949012325 H 0.0 **** 0.06
33285 H 2.8243512760937506 55.57927993162416 42.845679232115316 H 0.0 **** 0.06
33286 C 135.48521236815742 85.40389338791846 121.25761233285138 C 0.0 **** -0.24
33287 H 135.2479632645414 86.05574885449727 120.4164713001064 H 0.0 **** 0.06
33288 H 134.8199461024963 85.63005791498068 122.09068152733678 H 0.0 **** 0.06
33289 H 136.5188943304006 85.56783064784946 121.56273540374693 H 0.0 **** 0.06
33290 H 135.35473262840603 84.36371170772816 120.95994811852282 H 0.0 **** 0.06
33291 C 2.415044377652002 52.243278427653664 95.30351455985165 C 0.0 **** -0.24
33292 H 2.8833730660871772 53.15878175969823 95.66476070799266 H 0.0 **** 0.06
33293 H 2.7983726410287453 51.39272182582938 95.86859055094403 H 0.0 **** 0.06
33294 H 2.645493463863396 52.11037809865668 94.2464333796843 H 0.0 **** 0.06
33295 H 1.335254477249407 52.31104057405952 95.43504762572333 H 0.0 **** 0.06
33296 C 117.47157957660455 96.47705482522508 7.581786420989033 C 0.0 **** -0.24
33297 H 117.74363354151778 97.44935938430011 7.991063012481504 H 0.0 **** 0.06
33298 H 118.33707498378887 95.81480136695723 7.611769309587373 H 0.0 **** 0.06
33299 H 117.14101236746446 96.59817812978199 6.549543512784339 H 0.0 **** 0.06
33300 H 116.66292624554198 96.04759354853637 8.173262289232525 H 0.0 **** 0.06
33301 C 114.97301259955651 121.30529071552043 46.808679568310055 C 0.0 **** -0.24
33302 H 115.67285245377712 121.43137516028217 45.983399174105216 H 0.0 **** 0.06
33303 H 114.59379349806045 120.28272112234576 46.810181504030425 H 0.0 **** 0.06
33304 H 114.14241223443076 122.0002036465573 46.69084542096738 H 0.0 **** 0.06
33305 H 115.48333247108917 121.503957352495 47.75095716992058 H 0.0 **** 0.06
33306 C 111.33343615809352 57.62750803504812 132.85864489992073 C 0.0 **** -0.24
33307 H 110.98423570619443 57.0235511944574 133.6957685755948 H 0.0 **** 0.06
33308 H 110.65709502403647 58.46986598601056 132.71146584613587 H 0.0 **** 0.06
33309 H 111.3565748277205 57.01833697667524 131.95497398288148 H 0.0 **** 0.06
33310 H 112.33617651542883 57.998882242762875 133.07164935890654 H 0.0 **** 0.06
33311 C 46.57471265501475 52.87010368694732 81.68823684389403 C 0.0 **** -0.24
33312 H 47.28684483910577 52.098776654142995 81.98121849711748 H 0.0 **** 0.06
33313 H 47.044089796603245 53.545619912316056 80.97260855112773 H 0.0 **** 0.06
33314 H 46.265768785148424 53.43227682856906 82.56992668375429 H 0.0 **** 0.06
33315 H 45.70183751367492 52.404620304113806 81.23096330855127 H 0.0 **** 0.06
33316 C 31.13839572828718 54.990007796554806 90.31954014007114 C 0.0 **** -0.24
33317 H 30.39007204598977 55.028729311381795 91.11127318669799 H 0.0 **** 0.06
33318 H 31.58971787053079 53.997997884375735 90.29403389348609 H 0.0 **** 0.06
33319 H 31.909914328907604 55.73555655998882 90.513256450257 H 0.0 **** 0.06
33320 H 30.66388010638741 55.198111144415236 89.36096370371185 H 0.0 **** 0.06
33321 C 24.452932689656194 127.37628578542109 33.37769676381134 C 0.0 **** -0.24
33322 H 24.698386214795818 128.42852745909875 33.236580174512085 H 0.0 **** 0.06
33323 H 25.05879448376382 126.76882586520236 32.70396691397801 H 0.0 **** 0.06
33324 H 23.397506047753353 127.21655749698357 33.16021960610364 H 0.0 **** 0.06
33325 H 24.65956581803809 127.09032342936251 34.40911771874127 H 0.0 **** 0.06
33326 C 102.81440159419157 141.05150612848396 118.15928598450807 C 0.0 **** -0.24
33327 H 102.55162961499818 141.5008000540885 119.11745287545602 H 0.0 **** 0.06
33328 H 103.77701036950262 140.54778490698894 118.24661964180831 H 0.0 **** 0.06
33329 H 102.87834723463612 141.8308482181031 117.3997066450799 H 0.0 **** 0.06
33330 H 102.04938324540984 140.3294657433299 117.87515666413242 H 0.0 **** 0.06
33331 C 105.13014826307626 144.2554243055683 31.87531062132993 C 0.0 **** -0.24
33332 H 105.78858046770922 143.94723587611028 31.063687689902764 H 0.0 **** 0.06
33333 H 104.58827617567796 145.15488236940953 31.58061791782609 H 0.0 **** 0.06
33334 H 105.72266940364752 144.463915319834 32.76554151602926 H 0.0 **** 0.06
33335 H 104.42002015474185 143.4570941099736 32.089704749210256 H 0.0 **** 0.06
33336 C 19.67129067137884 17.646344681061947 124.09599239100498 C 0.0 **** -0.24
33337 H 20.256321204553075 17.591931252927424 123.1772125445593 H 0.0 **** 0.06
33338 H 20.180666927893014 17.08966937627443 124.88362453943853 H 0.0 **** 0.06
33339 H 18.685266432039413 17.21442237106612 123.92488653804153 H 0.0 **** 0.06
33340 H 19.56511083058237 18.688288057685753 124.39815417377042 H 0.0 **** 0.06
33341 C 50.951088244567174 45.27913862740918 61.626565573925745 C 0.0 **** -0.24
33342 H 50.88014962673469 46.182047656526834 62.23287150703126 H 0.0 **** 0.06
33343 H 51.94426423985168 44.845253005754515 61.73452171241473 H 0.0 **** 0.06
33344 H 50.775045267483634 45.530159703425824 60.57984199394113 H 0.0 **** 0.06
33345 H 50.20084308494269 44.56003447533409 61.957720194310724 H 0.0 **** 0.06
33346 C 103.4089431697347 26.40805558709591 54.21885416352802 C 0.0 **** -0.24
33347 H 103.95637737219744 26.121985952776036 53.32074901646659 H 0.0 **** 0.06
33348 H 103.93986611873049 26.042100941313734 55.09886041809469 H 0.0 **** 0.06
33349 H 102.41015876497563 25.974320905831533 54.19011801095546 H 0.0 **** 0.06
33350 H 103.33272735962956 27.494401210670283 54.26686707616933 H 0.0 **** 0.06
33351 C 137.44043859578565 19.413853788952366 4.940911706513845 C 0.0 **** -0.24
33352 H 137.61487163604082 20.279134798487092 4.301293232832279 H 0.0 **** 0.06
33353 H 137.40787612976317 18.512063672145374 4.329995066241736 H 0.0 **** 0.06
33354 H 136.49138986239373 19.533670980222084 5.4633753273123205 H 0.0 **** 0.06
33355 H 138.24816543021552 19.331838689130734 5.668818170176877 H 0.0 **** 0.06
33356 C 122.37504873399479 39.096079478969216 66.34145862014074 C 0.0 **** -0.24
33357 H 123.30574499444356 39.63978961690515 66.17972845146107 H 0.0 **** 0.06
33358 H 121.64140102403718 39.40298388211602 65.59581618911338 H 0.0 **** 0.06
33359 H 121.99500154449379 39.316348657683875 67.3388504706538 H 0.0 **** 0.06
33360 H 122.55979503294344 38.026019708432045 66.25092268075988 H 0.0 **** 0.06
33361 C 58.333115501258604 105.74608426853602 4.772182870185759 C 0.0 **** -0.24
33362 H 58.174458277026986 105.91347299029387 5.8377544635895795 H 0.0 **** 0.06
33363 H 58.29696349214689 104.67601774683197 4.5648097224194295 H 0.0 **** 0.06
33364 H 59.3079996082453 106.13871841097087 4.483932484662823 H 0.0 **** 0.06
33365 H 57.553990263327805 106.2536457621786 4.203626732368061 H 0.0 **** 0.06
33366 C 119.80601032332261 58.86798737806595 139.3074289651882 C 0.0 **** -0.24
33367 H 120.01015981490302 59.937169120131756 139.36690413117566 H 0.0 **** 0.06
33368 H 120.17932364915343 58.478835350733235 138.36093665494073 H 0.0 **** 0.06
33369 H 118.73071025487918 58.699193710518585 139.37266236901186 H 0.0 **** 0.06
33370 H 120.30397901913234 58.35772479426397 140.13238060268932 H 0.0 **** 0.06
33371 C 140.2698160506046 76.82504752030835 5.21927497251437 C 0.0 **** -0.24
33372 H 139.473733596022 77.1394788183477 4.544439009443806 H 0.0 **** 0.06
33373 H 141.12862462078544 76.49053474217814 4.637043959604227 H 0.0 **** 0.06
33374 H 139.91293672356068 76.0073363772419 5.845564470616637 H 0.0 **** 0.06
33375 H 140.56341018565058 77.66513673291325 5.849409509819054 H 0.0 **** 0.06
33376 C 63.90177573662811 5.92530817749423 51.323081711743455 C 0.0 **** -0.24
33377 H 64.0719749980757 4.974142173668383 51.82650429569546 H 0.0 **** 0.06
33378 H 63.998410552135425 5.787375107394666 50.24527414016187 H 0.0 **** 0.06
33379 H 64.63711208101194 6.653797391935342 51.66392889046307 H 0.0 **** 0.06
33380 H 62.89870943551243 6.2844309649975685 51.55489143545857 H 0.0 **** 0.06
33381 C 2.965942217401949 41.88699165049185 0.022382536445178403 C 0.0 **** -0.24
33382 H 2.2673342090438773 42.517896770848296 0.5719154974697176 H 0.0 **** 0.06
33383 H 3.0274695690721494 42.22799686742624 -1.0111873613792852 H 0.0 **** 0.06
33384 H 2.6177496428785325 40.854965479182376 0.04496025653051561 H 0.0 **** 0.06
33385 H 3.9516019391106667 41.948600937059396 0.4846293797375836 H 0.0 **** 0.06
33386 C 122.21804690301259 15.05786661727413 54.151444721973064 C 0.0 **** -0.24
33387 H 122.35529492991155 14.839225910791349 55.20983598306306 H 0.0 **** 0.06
33388 H 121.28463078126809 15.604551694202435 54.011599321725214 H 0.0 **** 0.06
33389 H 122.18009074070524 14.124814353793333 53.58982058499623 H 0.0 **** 0.06
33390 H 123.05126367846789 15.663277790178405 53.79464083697165 H 0.0 **** 0.06
33391 C 38.53802327546285 36.36144490732363 121.51600679477018 C 0.0 **** -0.24
33392 H 38.567453299017544 35.473259610164064 122.14709366993701 H 0.0 **** 0.06
33393 H 39.48150048423287 36.45636294061899 120.97785416870671 H 0.0 **** 0.06
33394 H 38.382139022396586 37.24332650710218 122.13765127156437 H 0.0 **** 0.06
33395 H 37.71939673167785 36.271351171098885 120.8019181443159 H 0.0 **** 0.06
33396 C 115.49561110405989 71.86084885004334 60.80616773134847 C 0.0 **** -0.24
33397 H 115.17066999184021 70.87833263083584 60.465767978144115 H 0.0 **** 0.06
33398 H 115.52281160687443 71.87645421109852 61.89633357213644 H 0.0 **** 0.06
33399 H 114.79863190039316 72.61793537975527 60.44891039178509 H 0.0 **** 0.06
33400 H 116.49088061894344 72.06948179801174 60.4147897227035 H 0.0 **** 0.06
33401 C 87.19224960754494 19.66359310808872 38.88699001507504 C 0.0 **** -0.24
33402 H 87.65744052314554 20.265200166522135 38.1059597556272 H 0.0 **** 0.06
33403 H 86.2574209462924 20.13083875539826 39.19601227770501 H 0.0 **** 0.06
33404 H 87.86491837647034 19.596732655580155 39.74283133278064 H 0.0 **** 0.06
33405 H 86.99089372223659 18.663769350428197 38.50385804231716 H 0.0 **** 0.06
33406 C 3.7932849373190187 18.954404397499218 73.47513011638003 C 0.0 **** -0.24
33407 H 4.218122033991435 18.385707299750976 72.64840167408484 H 0.0 **** 0.06
33408 H 3.4128337204720545 18.265916040346184 74.23051452529926 H 0.0 **** 0.06
33409 H 2.9782060357764557 19.57720262445588 73.10693908471748 H 0.0 **** 0.06
33410 H 4.564403225234283 19.586801101496576 73.91602798190566 H 0.0 **** 0.06
33411 C 143.08531763279427 39.27400785143641 56.836923055861476 C 0.0 **** -0.24
33412 H 143.88341244793148 39.35399973726925 57.574180004446845 H 0.0 **** 0.06
33413 H 142.12121209863446 39.39631434167808 57.33032201114061 H 0.0 **** 0.06
33414 H 143.12864431293355 38.29373139325017 56.36090328943547 H 0.0 **** 0.06
33415 H 143.20914566425253 40.050127087973564 56.08180092199403 H 0.0 **** 0.06
33416 C 66.34159556136376 43.83487777502381 125.58170841219655 C 0.0 **** -0.24
33417 H 66.38501030329166 44.92167544064996 125.50766175237187 H 0.0 **** 0.06
33418 H 65.38497276838422 43.48171189878026 125.19514063803548 H 0.0 **** 0.06
33419 H 66.4431710239823 43.537922197255256 126.6264216677388 H 0.0 **** 0.06
33420 H 67.15243602696188 43.39860011680517 124.99940231798477 H 0.0 **** 0.06
33421 C 59.79263974932476 69.78161745886848 66.51995074709748 C 0.0 **** -0.24
33422 H 58.853634792251526 69.2895536365221 66.2664615318295 H 0.0 **** 0.06
33423 H 60.59655850090812 69.04595884117896 66.52969304718015 H 0.0 **** 0.06
33424 H 59.7074538256778 70.23988437493404 67.50557730704269 H 0.0 **** 0.06
33425 H 60.01151625607277 70.55016314403781 65.77854498264935 H 0.0 **** 0.06
33426 C 80.89004523702096 142.69204035941274 112.85491091061942 C 0.0 **** -0.24
33427 H 80.48991041372116 143.70652727151358 112.85086400519191 H 0.0 **** 0.06
33428 H 81.953667614224 142.7216024258981 113.09590990032694 H 0.0 **** 0.06
33429 H 80.75305728866141 142.24390807261713 111.87109709455353 H 0.0 **** 0.06
33430 H 80.36377988132429 142.09746647605206 113.60139570753796 H 0.0 **** 0.06
33431 C 106.46436707838349 39.59006978660566 94.59018363671342 C 0.0 **** -0.24
33432 H 105.7532475305138 39.83524996113483 95.37940894823758 H 0.0 **** 0.06
33433 H 107.38389556734448 39.210834247851174 95.03625837340637 H 0.0 **** 0.06
33434 H 106.68461900203523 40.48514454837622 94.00899164686295 H 0.0 **** 0.06
33435 H 106.03521587117886 38.82912232813361 93.93886031145692 H 0.0 **** 0.06
33436 C 128.32557710263015 19.230703966626436 99.77192262924692 C 0.0 **** -0.24
33437 H 127.38989627536478 19.465797055676887 100.27903456744005 H 0.0 **** 0.06
33438 H 128.11601208086853 18.933865346717994 98.74383300719535 H 0.0 **** 0.06
33439 H 128.82558318529885 18.41381041819062 100.2919415985659 H 0.0 **** 0.06
33440 H 128.96946657427694 20.11029263354277 99.77175211295634 H 0.0 **** 0.06
33441 C 56.71145767527412 118.49022337955081 126.89821011535443 C 0.0 **** -0.24
33442 H 55.93675420128068 118.41411479567996 127.66188540850969 H 0.0 **** 0.06
33443 H 57.06993481172327 117.49194771687492 126.64495572105605 H 0.0 **** 0.06
33444 H 57.538924256498376 119.08826033711564 127.27993874825307 H 0.0 **** 0.06
33445 H 56.299028446908494 118.96585084559372 126.00890111298165 H 0.0 **** 0.06
33446 C 107.74325556555213 71.25823089560281 116.25269286408364 C 0.0 **** -0.24
33447 H 106.74214154069828 70.88718732468361 116.03203861988273 H 0.0 **** 0.06
33448 H 108.19713836866656 71.64255860024204 115.33862253709337 H 0.0 **** 0.06
33449 H 108.35295729750199 70.44636743817338 116.64853424240941 H 0.0 **** 0.06
33450 H 107.6788566378297 72.05768724495043 116.9908603402878 H 0.0 **** 0.06
33451 C 54.979323095517884 85.72417108430507 71.4254897687378 C 0.0 **** -0.24
33452 H 55.50743857577018 85.2807376808009 72.26986810252887 H 0.0 **** 0.06
33453 H 54.04901483373739 86.17328699199157 71.77458198732612 H 0.0 **** 0.06
33454 H 54.75739713392953 84.95182451726858 70.68930668799175 H 0.0 **** 0.06
33455 H 55.60511115812106 86.49256002251315 70.96969846785723 H 0.0 **** 0.06
33456 C 43.39292474265389 122.30283882626733 40.825111554958625 C 0.0 **** -0.24
33457 H 44.39595016891697 121.98707342155276 40.53778924557503 H 0.0 **** 0.06
33458 H 42.88953985138666 122.74348429542121 39.96471158559237 H 0.0 **** 0.06
33459 H 43.46010697696444 123.04063253310252 41.62463884638338 H 0.0 **** 0.06
33460 H 42.8263855871147 121.43957035623319 41.174908424820444 H 0.0 **** 0.06
33461 C 91.09649726772741 106.39328268955896 140.27082739376715 C 0.0 **** -0.24
33462 H 91.67924851288228 105.52166127833502 139.9735161404438 H 0.0 **** 0.06
33463 H 90.2258969792193 106.48703411257813 139.6204622848229 H 0.0 **** 0.06
33464 H 91.71259121009477 107.28859488053459 140.1861973712729 H 0.0 **** 0.06
33465 H 90.76782419204791 106.27462816109463 141.3037228613083 H 0.0 **** 0.06
33466 C 1.2758161048998886 125.66154672716193 82.09470590137822 C 0.0 **** -0.24
33467 H 0.4994225962580572 126.21793257829421 81.5712656240575 H 0.0 **** 0.06
33468 H 2.2546898767227503 125.97262453513379 81.73068034544798 H 0.0 **** 0.06
33469 H 1.1426964893854006 124.59459927262245 81.91418105772925 H 0.0 **** 0.06
33470 H 1.2062244966358548 125.859572593061 83.16437625594997 H 0.0 **** 0.06
33471 C 102.17091510912789 45.08726838715603 35.338639278999494 C 0.0 **** -0.24
33472 H 101.2293263869437 45.61362451964567 35.17760244872147 H 0.0 **** 0.06
33473 H 102.78484301735688 45.15903776873728 34.44024814914408 H 0.0 **** 0.06
33474 H 101.9673725598113 44.039227587595406 35.557657076818856 H 0.0 **** 0.06
33475 H 102.69995525983026 45.53714430156003 36.177900866810546 H 0.0 **** 0.06
33476 C 62.27163229801387 104.33796621926953 137.84382102629579 C 0.0 **** -0.24
33477 H 62.06126834998447 104.39214719481299 136.77565983524622 H 0.0 **** 0.06
33478 H 61.63920990191984 103.57522823027426 138.29917760311804 H 0.0 **** 0.06
33479 H 62.06473582237476 105.30387806953732 138.30374494197284 H 0.0 **** 0.06
33480 H 63.31922074443197 104.07948764249628 137.9948710960088 H 0.0 **** 0.06
33481 C 74.97805548842386 144.5410347855856 132.16276085691848 C 0.0 **** -0.24
33482 H 74.55394656321113 144.60825864610834 131.16110550150978 H 0.0 **** 0.06
33483 H 75.91237267142456 143.98140382208823 132.12527141649463 H 0.0 **** 0.06
33484 H 74.2742911370208 144.0316911388002 132.8210181621635 H 0.0 **** 0.06
33485 H 75.17118382702843 145.5449338444444 132.54319888997003 H 0.0 **** 0.06
33486 C 14.929837687322276 32.949359159883954 80.48513882407659 C 0.0 **** -0.24
33487 H 14.946573950584082 33.228706671070825 81.53920040524011 H 0.0 **** 0.06
33488 H 14.352689037447043 33.68419700360175 79.92388783274848 H 0.0 **** 0.06
33489 H 14.469050588780554 31.966647981169388 80.37858863822063 H 0.0 **** 0.06
33490 H 15.949308388889186 32.91677315274103 80.10200503980292 H 0.0 **** 0.06
33491 C 94.37842546005271 113.4516043852778 18.431622344142227 C 0.0 **** -0.24
33492 H 93.31169456719776 113.67446429968963 18.437910123577865 H 0.0 **** 0.06
33493 H 94.70649006899691 113.27220796908556 17.407510310706158 H 0.0 **** 0.06
33494 H 94.56654075095675 112.56264614877996 19.034584893037476 H 0.0 **** 0.06
33495 H 94.9281290797165 114.29537848291581 18.847051084460418 H 0.0 **** 0.06
33496 C 126.55813582606368 113.41280992469407 103.86377315477034 C 0.0 **** -0.24
33497 H 125.75719045061047 114.08534528035986 104.16976591415983 H 0.0 **** 0.06
33498 H 126.55609884298184 113.31595971159757 102.7776899071095 H 0.0 **** 0.06
33499 H 126.40337081620416 112.43320602915335 104.31651139641804 H 0.0 **** 0.06
33500 H 127.51588319445821 113.81672867766574 104.19112540139395 H 0.0 **** 0.06
33501 C 143.8976775557179 81.11378897871188 64.76274375542783 C 0.0 **** -0.24
33502 H 143.29618977525163 81.93046402510858 65.1621523462423 H 0.0 **** 0.06
33503 H 144.26026328984761 80.4935191702398 65.58258694602364 H 0.0 **** 0.06
33504 H 144.74623705947545 81.52317492099083 64.21440460395672 H 0.0 **** 0.06
33505 H 143.28842662484223 80.50917210654347 64.08997210552752 H 0.0 **** 0.06
33506 C 11.364471949038773 37.818979817160994 12.81318652627408 C 0.0 **** -0.24
33507 H 10.918692670015162 38.2846759267548 13.691134582427559 H 0.0 **** 0.06
33508 H 12.1348968894319 37.1134498471522 13.126891547761765 H 0.0 **** 0.06
33509 H 11.810952074536829 38.58726984781123 12.181101984221002 H 0.0 **** 0.06
33510 H 10.594710112894745 37.289817954741864 12.251709614659696 H 0.0 **** 0.06
33511 C 74.90429152523001 29.656864217047996 59.432652896665786 C 0.0 **** -0.24
33512 H 73.9159550752318 30.11420678334281 59.379882036982934 H 0.0 **** 0.06
33513 H 75.60930730164631 30.248723377882413 58.84761148670731 H 0.0 **** 0.06
33514 H 74.85847061805134 28.644495031011814 59.03039054100017 H 0.0 **** 0.06
33515 H 75.23309937474113 29.62148890900795 60.47106459873561 H 0.0 **** 0.06
33516 C 89.37350407312539 3.578862984738148 92.4166668422366 C 0.0 **** -0.24
33517 H 89.44403128479996 4.012670240275892 93.41387446922343 H 0.0 **** 0.06
33518 H 89.75349429493237 2.55763483673352 92.4371211983603 H 0.0 **** 0.06
33519 H 89.9646970254295 4.1726504405644995 91.71953540117894 H 0.0 **** 0.06
33520 H 88.33179368733967 3.572496421378954 92.09613630018379 H 0.0 **** 0.06
33521 C 91.64463557499566 34.679770890524765 46.03118997691621 C 0.0 **** -0.24
33522 H 91.89007024299201 33.894702549367565 46.74594545343035 H 0.0 **** 0.06
33523 H 91.89382310531235 34.34508825408807 45.02402414104046 H 0.0 **** 0.06
33524 H 92.2140066947995 35.57797146358706 46.26782071079646 H 0.0 **** 0.06
33525 H 90.57848799394368 34.90103114220315 46.08749417931085 H 0.0 **** 0.06
33526 C 41.935548996637564 7.9752898955364415 66.96371051429797 C 0.0 **** -0.24
33527 H 41.08844190037873 7.295661910604409 67.05844847716043 H 0.0 **** 0.06
33528 H 41.84486518562967 8.540653675424458 66.03577076653858 H 0.0 **** 0.06
33529 H 42.862339648615944 7.402031074322771 66.95136989113922 H 0.0 **** 0.06
33530 H 41.94441871265809 8.66332582370853 67.80880800386113 H 0.0 **** 0.06
33531 C 0.15870464290492237 15.205762558579806 89.10080201960417 C 0.0 **** -0.24
33532 H -0.05238982467750475 14.39258469991725 88.40673302571943 H 0.0 **** 0.06
33533 H -0.5021726722648054 15.128066420092495 89.96406870921899 H 0.0 **** 0.06
33534 H -0.006778717967733883 16.16092756255992 88.60217993862571 H 0.0 **** 0.06
33535 H 1.1962880043436712 15.14244315015111 89.43002740630905 H 0.0 **** 0.06
33536 C 111.01534734243366 62.354281772524985 84.42609654906056 C 0.0 **** -0.24
33537 H 111.74227356198385 61.922078264751235 85.11367511950564 H 0.0 **** 0.06
33538 H 110.63465352465262 61.57507155716638 83.76411645086083 H 0.0 **** 0.06
33539 H 111.49392585548473 63.13275971607135 83.83222738913497 H 0.0 **** 0.06
33540 H 110.1907635613192 62.784289143786054 84.99319536994679 H 0.0 **** 0.06
33541 C 67.25131711015722 11.959069462935133 43.397315156606254 C 0.0 **** -0.24
33542 H 67.59940841726392 11.241064178874979 44.13948139440092 H 0.0 **** 0.06
33543 H 68.02785469792711 12.703100353356092 43.2186581580043 H 0.0 **** 0.06
33544 H 66.35172315337482 12.453453286583311 43.76463145934139 H 0.0 **** 0.06
33545 H 67.02501385419374 11.439618318412073 42.4658017267833 H 0.0 **** 0.06
33546 C 111.09953197382607 4.215877841578447 100.9471821278124 C 0.0 **** -0.24
33547 H 110.32338586098903 4.906279283161126 100.61489758536555 H 0.0 **** 0.06
33548 H 112.07971188209002 4.65355288025637 100.75763052409248 H 0.0 **** 0.06
33549 H 111.00784529157075 3.277949068785233 100.40012725433903 H 0.0 **** 0.06
33550 H 110.98467328796012 4.027427688414207 102.01387976569423 H 0.0 **** 0.06
33551 C 42.332748091839306 17.716361020128147 63.4144619017562 C 0.0 **** -0.24
33552 H 41.55274700339257 18.4422539224893 63.64364235804382 H 0.0 **** 0.06
33553 H 43.30178013714186 18.12133769500086 63.70647678686559 H 0.0 **** 0.06
33554 H 42.33314482976863 17.51030696075364 62.34436356966937 H 0.0 **** 0.06
33555 H 42.14336930228609 16.794317312168715 63.96221812686581 H 0.0 **** 0.06
33556 C 51.466557208746465 85.70867646320387 90.69318997002914 C 0.0 **** -0.24
33557 H 51.09227671673109 85.80267515547978 89.67361541614515 H 0.0 **** 0.06
33558 H 51.61049597352472 84.6545149693095 90.93086851152795 H 0.0 **** 0.06
33559 H 50.74623152102562 86.14235473391547 91.38657365973171 H 0.0 **** 0.06
33560 H 52.41764002886282 86.23402506208183 90.78096936410404 H 0.0 **** 0.06
33561 C 69.44237480035837 141.83192514226772 14.897032045708386 C 0.0 **** -0.24
33562 H 69.89782740968647 141.9023322115535 13.909418939615819 H 0.0 **** 0.06
33563 H 69.45877748151037 140.79509034416958 15.231587588944649 H 0.0 **** 0.06
33564 H 68.41179300341187 142.18232589338598 14.84689883465569 H 0.0 **** 0.06
33565 H 70.00224673252006 142.4496480477219 15.599321682880202 H 0.0 **** 0.06
33566 C 106.15042836308928 13.876004217933229 112.20679546618709 C 0.0 **** -0.24
33567 H 106.78585180472547 13.872947356230696 111.32080131808323 H 0.0 **** 0.06
33568 H 106.45778824222671 14.682897661808227 112.87109262568521 H 0.0 **** 0.06
33569 H 106.24538312689654 12.92138394610916 112.72439244371054 H 0.0 **** 0.06
33570 H 105.1124196888567 14.025338440090849 111.90809793155125 H 0.0 **** 0.06
33571 C 92.76391177564722 75.43270399548608 82.01397418713383 C 0.0 **** -0.24
33572 H 92.06151969137852 76.26073487909571 81.9178486559763 H 0.0 **** 0.06
33573 H 93.57546036824021 75.72139496069838 82.68224608093539 H 0.0 **** 0.06
33574 H 93.17007700797717 75.18569942751506 81.03250360953237 H 0.0 **** 0.06
33575 H 92.24766485219214 74.56462246526966 82.42261390857327 H 0.0 **** 0.06
33576 C 54.31809845312958 90.51581372188213 14.673326567503636 C 0.0 **** -0.24
33577 H 54.4708088231275 90.96577681722964 15.654254010248565 H 0.0 **** 0.06
33578 H 53.374176234102464 89.96981990170337 14.667449987445536 H 0.0 **** 0.06
33579 H 55.136737210005634 89.83067928593027 14.457421024565065 H 0.0 **** 0.06
33580 H 54.28979354497946 91.29892714320412 13.91537860251924 H 0.0 **** 0.06
33581 C 89.13022469246303 118.32676293935579 115.81822419631906 C 0.0 **** -0.24
33582 H 89.74657568422296 118.93821457262995 115.15882729626937 H 0.0 **** 0.06
33583 H 88.07671174846924 118.54278695239746 115.63446049986133 H 0.0 **** 0.06
33584 H 89.3721986299684 118.55583362824574 116.85652722191936 H 0.0 **** 0.06
33585 H 89.32477877515711 117.27233881024803 115.62412801458903 H 0.0 **** 0.06
33586 C 140.09360947163003 98.7657043552683 62.572691005612384 C 0.0 **** -0.24
33587 H 140.43819216020816 98.96794337854965 61.55788703235645 H 0.0 **** 0.06
33588 H 139.3758628878887 97.94459997627202 62.553998560907246 H 0.0 **** 0.06
33589 H 139.61603538897506 99.65706057941628 62.97879068277598 H 0.0 **** 0.06
33590 H 140.94371253124768 98.4916005546143 63.196771733732135 H 0.0 **** 0.06
33591 C 59.17375727199715 9.771674560419996 33.470130283595424 C 0.0 **** -0.24
33592 H 58.58917665425753 9.54285514432064 32.57999096864154 H 0.0 **** 0.06
33593 H 58.99158484710941 10.803694156014387 33.769052742866734 H 0.0 **** 0.06
33594 H 60.23342268791208 9.636547728928377 33.25376985280296 H 0.0 **** 0.06
33595 H 58.880722893440065 9.101357334128238 34.278682448028576 H 0.0 **** 0.06
33596 C 3.8499505528120324 102.82780855135377 18.164176092597238 C 0.0 **** -0.24
33597 H 3.4435442724984426 103.46480705347915 17.378372202335775 H 0.0 **** 0.06
33598 H 4.124707102766397 103.44182383615828 19.022995078714658 H 0.0 **** 0.06
33599 H 4.733105759374446 102.30952805930963 17.790316332952727 H 0.0 **** 0.06
33600 H 3.099236013188122 102.09787970912976 18.464306713155494 H 0.0 **** 0.06
33601 C 98.52390236561592 137.7085271694017 121.06137694354005 C 0.0 **** -0.24
33602 H 98.44836471888601 138.64820319949905 121.60776222964795 H 0.0 **** 0.06
33603 H 97.9137316796785 137.76209610834337 120.15964582634079 H 0.0 **** 0.06
33604 H 98.16951004630738 136.89259669551257 121.69215542363223 H 0.0 **** 0.06
33605 H 99.5636831218556 137.5306630754801 120.78755542425277 H 0.0 **** 0.06
33606 C 96.68822740808851 68.68616430740822 17.328509363223475 C 0.0 **** -0.24
33607 H 97.50918289663028 68.0893883197026 17.72770413062051 H 0.0 **** 0.06
33608 H 95.82418274193043 68.60197096701903 17.98930304446685 H 0.0 **** 0.06
33609 H 96.42398503805984 68.3226079717997 16.336575614303285 H 0.0 **** 0.06
33610 H 96.99634178320689 69.72993753727089 17.26403539471488 H 0.0 **** 0.06
33611 C 135.2909831753972 91.87266651711096 18.22721884930587 C 0.0 **** -0.24
33612 H 136.2795166397018 92.25721393032066 18.477566123961523 H 0.0 **** 0.06
33613 H 134.9310830910646 92.3593864544406 17.32034699474869 H 0.0 **** 0.06
33614 H 134.603383143048 92.07670429786344 19.04764779255018 H 0.0 **** 0.06
33615 H 135.35118483355149 90.79609901892456 18.061942841342955 H 0.0 **** 0.06
33616 C 57.49149621054369 55.87103497260722 88.63591885656251 C 0.0 **** -0.24
33617 H 56.96819906829411 56.78704560456714 88.91317973217447 H 0.0 **** 0.06
33618 H 57.07888191355809 55.48523045883411 87.70337060395804 H 0.0 **** 0.06
33619 H 57.36639542773685 55.12906995987322 89.42441337207184 H 0.0 **** 0.06
33620 H 58.55167058377711 56.08545021322749 88.50320384035784 H 0.0 **** 0.06
33621 C 97.1965108332771 2.974057145133287 10.303641276991016 C 0.0 **** -0.24
33622 H 96.7188835006317 2.7474990653445133 9.350613760482581 H 0.0 **** 0.06
33623 H 96.459850961632 3.3956990762634405 10.987596113239135 H 0.0 **** 0.06
33624 H 98.00018409441462 3.6937027214717943 10.14512167112472 H 0.0 **** 0.06
33625 H 97.60811112769007 2.058632177211784 10.730496391273341 H 0.0 **** 0.06
33626 C 65.21383030913879 24.016180650583436 72.53765307118907 C 0.0 **** -0.24
33627 H 65.45235660348608 24.100181674003835 71.47686328029206 H 0.0 **** 0.06
33628 H 64.22960113830649 24.44609841119359 72.72290302116218 H 0.0 **** 0.06
33629 H 65.96170847964314 24.554039211849158 73.12073139187268 H 0.0 **** 0.06
33630 H 65.21374701116194 22.965555805403426 72.82723432970718 H 0.0 **** 0.06
33631 C 104.39664143035083 82.5653693277022 132.78623900097347 C 0.0 **** -0.24
33632 H 104.93471377531452 82.5833743059469 133.7338891787059 H 0.0 **** 0.06
33633 H 105.1035097479933 82.41569697993464 131.97017021513633 H 0.0 **** 0.06
33634 H 103.8740585399436 83.5124920245191 132.6472617543758 H 0.0 **** 0.06
33635 H 103.67366952530568 81.7494372591953 132.7942638249474 H 0.0 **** 0.06
33636 C 75.90056939861975 42.6295946039761 117.74912871954227 C 0.0 **** -0.24
33637 H 76.73304160000164 43.29990607915872 117.53459091966313 H 0.0 **** 0.06
33638 H 76.00670024841145 41.718456186759866 117.1595857075928 H 0.0 **** 0.06
33639 H 74.96212710883798 43.122706511042054 117.49284630902243 H 0.0 **** 0.06
33640 H 75.90056398032185 42.3788452751419 118.81027795781652 H 0.0 **** 0.06
33641 C 27.282963947881 110.64261675625715 67.06560459432623 C 0.0 **** -0.24
33642 H 27.597393524575452 109.62908010254597 67.31345609281873 H 0.0 **** 0.06
33643 H 26.467247253319087 110.94036895725378 67.72468866504045 H 0.0 **** 0.06
33644 H 26.94308057594847 110.67480647114957 66.03039011531331 H 0.0 **** 0.06
33645 H 28.12299039589398 111.32492076626596 67.1937243779336 H 0.0 **** 0.06
33646 C 20.14799490239119 142.1179512814481 124.09203117085673 C 0.0 **** -0.24
33647 H 20.543016864210074 141.11375736017797 124.24453722736303 H 0.0 **** 0.06
33648 H 19.286793065709332 142.0722943646074 123.42471956403071 H 0.0 **** 0.06
33649 H 20.91870190560263 142.74931661002807 123.64874178703431 H 0.0 **** 0.06
33650 H 19.842407967468603 142.53762559778525 125.0516957440698 H 0.0 **** 0.06
33651 C 9.943381984353373 17.416375066733053 42.227418732504276 C 0.0 **** -0.24
33652 H 8.907088489626439 17.47406514335563 41.896401380098524 H 0.0 **** 0.06
33653 H 9.995972452338258 16.859901081951136 43.163055858829836 H 0.0 **** 0.06
33654 H 10.331953668877887 18.42294575593246 42.381078669192476 H 0.0 **** 0.06
33655 H 10.539435244274635 16.908771246229662 41.46808229082646 H 0.0 **** 0.06
33656 C 74.1060806475898 25.58815942328164 10.527767374600472 C 0.0 **** -0.24
33657 H 73.94137688337548 24.51527343973578 10.62726226472185 H 0.0 **** 0.06
33658 H 74.62823258578197 25.957941089260544 11.410975633002693 H 0.0 **** 0.06
33659 H 73.1461772021508 26.095441039772993 10.433977134599075 H 0.0 **** 0.06
33660 H 74.70874034790467 25.782051637072243 9.641141783464462 H 0.0 **** 0.06
33661 C 23.538825578548 97.22224336328108 4.836474349745629 C 0.0 **** -0.24
33662 H 23.286949508059422 98.10980201200061 4.256052101580195 H 0.0 **** 0.06
33663 H 23.369051603774352 97.42162911988034 5.895275596937211 H 0.0 **** 0.06
33664 H 24.586726801229446 96.96920685394448 4.677451022047052 H 0.0 **** 0.06
33665 H 22.91087576786427 96.39010037457241 4.517115605822937 H 0.0 **** 0.06
33666 C 76.53691450101631 89.05010266611012 55.50350858828274 C 0.0 **** -0.24
33667 H 77.3482547254791 89.77598326077548 55.56484646711017 H 0.0 **** 0.06
33668 H 75.86804366535594 89.18028095064558 56.35478724742171 H 0.0 **** 0.06
33669 H 76.9504216724373 88.04146064728955 55.516850699592226 H 0.0 **** 0.06
33670 H 75.98251551618961 89.2034007817822 54.57753593333635 H 0.0 **** 0.06
33671 C 2.5499848748332 23.55971377205715 134.16553252736622 C 0.0 **** -0.24
33672 H 1.9931050133567112 24.493729408181657 134.23164949970428 H 0.0 **** 0.06
33673 H 2.9604757091267118 23.452880356157088 133.1609934128997 H 0.0 **** 0.06
33674 H 1.8825522213829515 22.72374731811894 134.37644167228714 H 0.0 **** 0.06
33675 H 3.3617222152911665 23.56846032116224 134.8922366214191 H 0.0 **** 0.06
33676 C 2.5647422365941566 72.23057409361866 56.7271072178097 C 0.0 **** -0.24
33677 H 2.0770101511201347 72.82240943329236 55.95337200222994 H 0.0 **** 0.06
33678 H 3.5528882230547083 72.64533346155622 56.93189045118676 H 0.0 **** 0.06
33679 H 2.6658157579454382 71.19999251031925 56.38666244273972 H 0.0 **** 0.06
33680 H 1.9641827962727234 72.25559715666924 57.636759420753634 H 0.0 **** 0.06
33681 C 116.30917475214248 114.42510433667213 131.65142124087595 C 0.0 **** -0.24
33682 H 115.90558256383203 113.63237935570673 132.28141358236533 H 0.0 **** 0.06
33683 H 117.29479049002369 114.13259093724083 131.28716103981512 H 0.0 **** 0.06
33684 H 116.39303080265141 115.34306562414763 132.23267945338185 H 0.0 **** 0.06
33685 H 115.64342482901135 114.59015025528562 130.8045034379667 H 0.0 **** 0.06
33686 C 116.98976326680834 134.66518439069932 11.8607377765006 C 0.0 **** -0.24
33687 H 116.19197478869494 133.94140223466385 12.030322192591385 H 0.0 **** 0.06
33688 H 117.84986941448166 134.4091415917432 12.479870573949803 H 0.0 **** 0.06
33689 H 116.63594491721885 135.66216210532662 12.122708947455976 H 0.0 **** 0.06
33690 H 117.27899079901046 134.64618550051486 10.809397476296667 H 0.0 **** 0.06
33691 C 35.24719229941267 10.344033976210419 10.711562939461714 C 0.0 **** -0.24
33692 H 35.80867028926514 9.989513865632972 11.576170868765331 H 0.0 **** 0.06
33693 H 35.88112058065671 10.304502351719385 9.825805593125182 H 0.0 **** 0.06
33694 H 34.926655232429944 11.372418441275961 10.884092252118819 H 0.0 **** 0.06
33695 H 34.372777066615626 9.711565153663017 10.561706205402686 H 0.0 **** 0.06
33696 C 50.67988600454572 110.90024753966222 87.99872926360939 C 0.0 **** -0.24
33697 H 49.79497723672361 110.89071734779972 87.36146746895082 H 0.0 **** 0.06
33698 H 51.574717420422104 110.84735797894783 87.37811960122147 H 0.0 **** 0.06
33699 H 50.651268922075445 110.04201503417553 88.66984096157756 H 0.0 **** 0.06
33700 H 50.69606351978038 111.81961163288437 88.58407262373339 H 0.0 **** 0.06
33701 C 120.13784427043745 14.402440931258411 109.92174719643488 C 0.0 **** -0.24
33702 H 119.76703688616558 14.50782630744662 110.94058066574381 H 0.0 **** 0.06
33703 H 120.48135305170089 15.37134393718192 109.55839253620151 H 0.0 **** 0.06
33704 H 119.33697931216338 14.035768639975707 109.27977473619826 H 0.0 **** 0.06
33705 H 120.96696175775335 13.694951036904342 109.90851314018435 H 0.0 **** 0.06
33706 C 31.903337008439536 95.60003465603822 69.44285313988884 C 0.0 **** -0.24
33707 H 31.323557380776123 96.52063475402602 69.51235102333175 H 0.0 **** 0.06
33708 H 32.67398349382583 95.71323365833982 68.68038158266437 H 0.0 **** 0.06
33709 H 31.243909764824494 94.77542811103709 69.17345079771081 H 0.0 **** 0.06
33710 H 32.37069221281415 95.39280816945879 70.40605521482593 H 0.0 **** 0.06
33711 C 0.27231419969706394 82.49519956925579 2.138717287928557 C 0.0 **** -0.24
33712 H -0.2249178741531921 82.444413034006 3.1078756506340426 H 0.0 **** 0.06
33713 H 0.8215458727059683 81.57052725218449 1.9628805751095797 H 0.0 **** 0.06
33714 H 0.9639428029019825 83.3376448706303 2.129406650758682 H 0.0 **** 0.06
33715 H -0.4740961142135802 82.63000246281092 1.3549483265924778 H 0.0 **** 0.06
33716 C 52.03920501488339 67.85176827829972 23.714182558117535 C 0.0 **** -0.24
33717 H 51.15134509265883 68.46861346663556 23.577172904877692 H 0.0 **** 0.06
33718 H 52.211375660267606 67.6944815914986 24.778197592731892 H 0.0 **** 0.06
33719 H 52.90141669410083 68.35481603627517 23.276327703903213 H 0.0 **** 0.06
33720 H 51.89259719222031 66.88991775431936 23.22270354877459 H 0.0 **** 0.06
33721 C 103.58517927426358 48.47811210205893 136.86266924261227 C 0.0 **** -0.24
33722 H 103.17988180841694 47.4762771112013 136.72554356190003 H 0.0 **** 0.06
33723 H 104.06574651620295 48.54437645325493 137.83902628810603 H 0.0 **** 0.06
33724 H 102.77718603503475 49.20831031567657 136.805019907775 H 0.0 **** 0.06
33725 H 104.31677728609918 48.683230939752164 136.08190522225388 H 0.0 **** 0.06
33726 C 9.96288396478451 39.95379628612403 137.20103609027723 C 0.0 **** -0.24
33727 H 10.719679704563795 39.97620529566704 136.41641071795786 H 0.0 **** 0.06
33728 H 10.429875274330449 40.16634981405326 138.16207873077502 H 0.0 **** 0.06
33729 H 9.500241756750455 38.96703067715421 137.23142920507382 H 0.0 **** 0.06
33730 H 9.20162019237181 40.70508350086857 136.99205315911925 H 0.0 **** 0.06
33731 C 105.50381444690483 13.892607450846356 84.8658315993963 C 0.0 **** -0.24
33732 H 104.58227235657786 14.433156617193049 84.64678884514865 H 0.0 **** 0.06
33733 H 106.32093456471917 14.319811981882822 84.2846423940914 H 0.0 **** 0.06
33734 H 105.38090867792066 12.842098922825187 84.60265315479808 H 0.0 **** 0.06
33735 H 105.72982012848301 13.978216774894179 85.92891879809079 H 0.0 **** 0.06
33736 C 10.427506606542096 70.0093633639109 29.118387621250122 C 0.0 **** -0.24
33737 H 10.609039710645135 68.94460603236587 28.97347925649757 H 0.0 **** 0.06
33738 H 10.54286268971876 70.25696919657832 30.174352247033426 H 0.0 **** 0.06
33739 H 9.413810640787574 70.2523769199558 28.79653223481813 H 0.0 **** 0.06
33740 H 11.142430366984314 70.5837358956586 28.530369721520117 H 0.0 **** 0.06
33741 C 12.43974832362931 29.35074500100859 139.10653819004494 C 0.0 **** -0.24
33742 H 12.95860510567011 29.645924851755524 138.19568238361109 H 0.0 **** 0.06
33743 H 11.589019964633373 30.011992575066017 139.27062899768026 H 0.0 **** 0.06
33744 H 13.123489601061877 29.420087831835872 139.9523379983131 H 0.0 **** 0.06
33745 H 12.087798467458214 28.323618841657094 139.00710944208916 H 0.0 **** 0.06
33746 C 13.155790282332703 25.689490204956797 82.46128504340574 C 0.0 **** -0.24
33747 H 12.505118429034248 24.95695544611204 81.98512876461423 H 0.0 **** 0.06
33748 H 13.910209753151904 26.022814589310812 81.7484771983053 H 0.0 **** 0.06
33749 H 13.645018970448753 25.234869848562944 83.32370813723176 H 0.0 **** 0.06
33750 H 12.562426073328211 26.543586151942144 82.78915996955469 H 0.0 **** 0.06
33751 C 92.70164065145727 120.588541867102 44.472187230184375 C 0.0 **** -0.24
33752 H 93.46498503935966 121.31987684659957 44.20546000010398 H 0.0 **** 0.06
33753 H 92.46672930676317 120.68047855099529 45.532478318431345 H 0.0 **** 0.06
33754 H 93.07409002446536 119.58468471538593 44.26753828732376 H 0.0 **** 0.06
33755 H 91.80273538386099 120.7693027999522 43.88351782919443 H 0.0 **** 0.06
33756 C 98.42226779224993 5.06319326808466 106.4132774347527 C 0.0 **** -0.24
33757 H 97.9989647928707 5.988792145210198 106.02432223604657 H 0.0 **** 0.06
33758 H 97.64488706130254 4.299937245433853 106.46119806078994 H 0.0 **** 0.06
33759 H 98.8223999178561 5.238182995684838 107.41223428931826 H 0.0 **** 0.06
33760 H 99.22355565677162 4.725186657391021 105.75541557312116 H 0.0 **** 0.06
33761 C 109.6588047323397 96.8680721135342 29.45379077179676 C 0.0 **** -0.24
33762 H 109.15962017886561 95.91841621521385 29.647866475460674 H 0.0 **** 0.06
33763 H 108.93755590988734 97.5832617681716 29.05690182118279 H 0.0 **** 0.06
33764 H 110.4578118154232 96.71645252420473 28.727740431057917 H 0.0 **** 0.06
33765 H 110.07978912757311 97.2532814710051 30.382845568298173 H 0.0 **** 0.06
33766 C 63.09059351197308 33.70032178698457 62.14776137700781 C 0.0 **** -0.24
33767 H 62.497003785461374 32.83139993497456 62.43130843432212 H 0.0 **** 0.06
33768 H 62.45156184175217 34.58355497623442 62.1219621699735 H 0.0 **** 0.06
33769 H 63.525770951316986 33.53741276524537 61.16162641894536 H 0.0 **** 0.06
33770 H 63.887478705644526 33.84883140782011 62.87697314931708 H 0.0 **** 0.06
33771 C 116.75040114386728 127.28530433233533 121.7418248309542 C 0.0 **** -0.24
33772 H 117.57885152233256 126.59323031123814 121.8992303653048 H 0.0 **** 0.06
33773 H 115.81321228314268 126.79673904537647 122.01006713590097 H 0.0 **** 0.06
33774 H 116.71939549743634 127.58137844413496 120.69326931688211 H 0.0 **** 0.06
33775 H 116.8922290839243 128.1677625921409 122.36520041824066 H 0.0 **** 0.06
33776 C 105.55517722706658 84.42899205092192 12.775213348576216 C 0.0 **** -0.24
33777 H 104.62536420056924 83.97493991320522 12.434189535881131 H 0.0 **** 0.06
33778 H 105.8333519335341 84.00554706824278 13.740875879328627 H 0.0 **** 0.06
33779 H 105.41859640917671 85.50490487525065 12.875028619012397 H 0.0 **** 0.06
33780 H 106.34391631319478 84.22847746651115 12.049608440149825 H 0.0 **** 0.06
33781 C 25.196815330566793 94.10031110551814 82.21238792361096 C 0.0 **** -0.24
33782 H 25.59019746692502 93.14553925009388 82.56188343440017 H 0.0 **** 0.06
33783 H 24.666683266257422 93.9525800355684 81.27133349538663 H 0.0 **** 0.06
33784 H 26.020549459192594 94.79815694439614 82.06002259009252 H 0.0 **** 0.06
33785 H 24.51135700176266 94.50465987745035 82.95707164030456 H 0.0 **** 0.06
33786 C 11.956360744967327 43.70835839213726 129.89961855980198 C 0.0 **** -0.24
33787 H 11.260671767782696 43.38069788748594 129.12728940358483 H 0.0 **** 0.06
33788 H 11.906625483200713 43.02342603537474 130.74719867378607 H 0.0 **** 0.06
33789 H 11.688075105549103 44.71237258937974 130.22691530897217 H 0.0 **** 0.06
33790 H 12.969092240599025 43.71494170429301 129.4968227481256 H 0.0 **** 0.06
33791 C 90.25138992598453 121.68838279587 113.02980270488693 C 0.0 **** -0.24
33792 H 90.95371628790276 121.97850116451328 112.24911079516257 H 0.0 **** 0.06
33793 H 89.64562340390955 122.54949592213684 113.31259063883296 H 0.0 **** 0.06
33794 H 90.80329372388857 121.3301993558877 113.89897686966872 H 0.0 **** 0.06
33795 H 89.60351401841382 120.89452630257556 112.65856483195195 H 0.0 **** 0.06
33796 C 72.39746145464918 10.119443765395602 59.941492242604795 C 0.0 **** -0.24
33797 H 73.1592240109999 9.355954220478111 59.788890314842604 H 0.0 **** 0.06
33798 H 72.6233778823408 10.987901831496913 59.32151537349756 H 0.0 **** 0.06
33799 H 72.38427658698805 10.415286102169262 60.98988020093793 H 0.0 **** 0.06
33800 H 71.42160878344365 9.719754003638457 59.66398080789918 H 0.0 **** 0.06
33801 C 137.91203547398115 133.49457984242838 68.27282287095103 C 0.0 **** -0.24
33802 H 138.56985746386513 133.10445632652184 69.04932255451837 H 0.0 **** 0.06
33803 H 137.05153879926632 133.97899458625676 68.73463748476456 H 0.0 **** 0.06
33804 H 137.572014805054 132.67470014011045 67.64055149550741 H 0.0 **** 0.06
33805 H 138.45661882832854 134.21983094550697 67.6673472312152 H 0.0 **** 0.06
33806 C 14.04355598263109 132.39219202933575 58.7516804813655 C 0.0 **** -0.24
33807 H 14.155677207450537 133.12130460980947 57.94921828710545 H 0.0 **** 0.06
33808 H 14.592179032126097 131.48557675748427 58.498235508578716 H 0.0 **** 0.06
33809 H 12.987361504647623 132.15428474925199 58.88007935347309 H 0.0 **** 0.06
33810 H 14.437267270880454 132.80899784823683 59.67902143982093 H 0.0 **** 0.06
33811 C 18.515136720793578 84.83777825883101 107.6028781559721 C 0.0 **** -0.24
33812 H 19.095400835369652 85.2916470694446 108.4067777727668 H 0.0 **** 0.06
33813 H 19.116340760203784 84.8072826933178 106.6946311717377 H 0.0 **** 0.06
33814 H 17.617223871266788 85.42954950867954 107.42519530654833 H 0.0 **** 0.06
33815 H 18.23158248423426 83.82460842211742 107.88635785060508 H 0.0 **** 0.06
33816 C 67.97019703694494 143.62464212987973 28.83630670060876 C 0.0 **** -0.24
33817 H 68.7535740955586 144.22264505288038 29.30041307041597 H 0.0 **** 0.06
33818 H 68.4185540565303 142.77468511105982 28.32062074820402 H 0.0 **** 0.06
33819 H 67.42217621748475 144.23685824966293 28.120487257128502 H 0.0 **** 0.06
33820 H 67.28627182483345 143.2636938600057 29.604924016341272 H 0.0 **** 0.06
33821 C 124.3475200980709 136.8407322190477 8.268343586531302 C 0.0 **** -0.24
33822 H 123.52546981433369 137.55602606709553 8.248195982450959 H 0.0 **** 0.06
33823 H 125.03610168523319 137.10121675885463 9.073183428577668 H 0.0 **** 0.06
33824 H 124.87589474382949 136.8673347950558 7.314951502714546 H 0.0 **** 0.06
33825 H 123.95338544530652 135.83884358427042 8.437446864640464 H 0.0 **** 0.06
33826 C 80.26432133324388 28.303774121420787 7.440209807086944 C 0.0 **** -0.24
33827 H 80.40881293356759 27.699072742063393 8.335071964899015 H 0.0 **** 0.06
33828 H 79.19756734232246 28.45467437513421 7.271859056341697 H 0.0 **** 0.06
33829 H 80.698581318826 27.791427561432513 6.581826352503924 H 0.0 **** 0.06
33830 H 80.75253670285099 29.269117860527913 7.5715265531087255 H 0.0 **** 0.06
33831 C 78.39232745215952 29.812365804914577 36.00973198997275 C 0.0 **** -0.24
33832 H 78.66008120683955 30.42972168905925 36.867258980027486 H 0.0 **** 0.06
33833 H 79.29539975885154 29.529433135472175 35.46996689387771 H 0.0 **** 0.06
33834 H 77.73304216116497 30.374818332697032 35.348603443145976 H 0.0 **** 0.06
33835 H 77.87897764148954 28.91485867597413 36.35517928548575 H 0.0 **** 0.06
33836 C 90.5714400826921 53.41821466057564 119.91092823459459 C 0.0 **** -0.24
33837 H 91.6182240113923 53.366097750738646 120.21126830159486 H 0.0 **** 0.06
33838 H 90.50765790020932 53.46842864001769 118.82415306603403 H 0.0 **** 0.06
33839 H 90.11341461780702 54.308059107936685 120.34338916071042 H 0.0 **** 0.06
33840 H 90.04713837990684 52.53024013402549 120.26614496447095 H 0.0 **** 0.06
33841 C 70.28668872172204 129.70708481579135 124.0349180165218 C 0.0 **** -0.24
33842 H 69.85098251700535 130.55508662822365 124.56229442928472 H 0.0 **** 0.06
33843 H 71.15928409637084 129.34877384177173 124.58105028350948 H 0.0 **** 0.06
33844 H 70.5861273636911 130.01755789757863 123.0334990750629 H 0.0 **** 0.06
33845 H 69.54953820850946 128.90711275585682 123.96169406504256 H 0.0 **** 0.06
33846 C 59.9132655652262 19.003993319039623 133.07911846344774 C 0.0 **** -0.24
33847 H 59.02662656112871 18.824034485052692 133.68693092156894 H 0.0 **** 0.06
33848 H 60.554516449829265 18.122842017973582 133.10300545475462 H 0.0 **** 0.06
33849 H 60.45677550055058 19.861499819391184 133.47491439155368 H 0.0 **** 0.06
33850 H 59.61281440913693 19.207037612707282 132.05111164319214 H 0.0 **** 0.06
33851 C 0.1500302845645649 45.82475659435636 49.08627236871477 C 0.0 **** -0.24
33852 H -0.3330593287763577 46.209271506272216 49.98380763119491 H 0.0 **** 0.06
33853 H 0.7282657522980287 46.620655425173254 48.61621096793917 H 0.0 **** 0.06
33854 H -0.6086819198243631 45.46716280438886 48.38982826589762 H 0.0 **** 0.06
33855 H 0.8127958005641176 45.00256029155378 49.353839093999326 H 0.0 **** 0.06
33856 C 42.67289785038713 26.17024636164794 27.049450445317376 C 0.0 **** -0.24
33857 H 43.68061438010045 26.56744612006429 26.923813327982174 H 0.0 **** 0.06
33858 H 42.14714135684642 26.749018111705738 27.808642945764994 H 0.0 **** 0.06
33859 H 42.7301055030382 25.127471070640325 27.362704181138277 H 0.0 **** 0.06
33860 H 42.135690751661286 26.237949489680915 26.103802156360217 H 0.0 **** 0.06
33861 C 59.07435966184772 43.678148399994996 3.4648649651956305 C 0.0 **** -0.24
33862 H 59.18815355927261 44.203737577184896 2.517371001475336 H 0.0 **** 0.06
33863 H 58.97160997414308 42.60926719635337 3.2778586345597738 H 0.0 **** 0.06
33864 H 58.185102159220264 44.04405909946664 3.979228066615086 H 0.0 **** 0.06
33865 H 59.95113701253365 43.85665035298206 4.087385991269848 H 0.0 **** 0.06
33866 C 108.87936203758751 65.41252038156168 25.64994548670029 C 0.0 **** -0.24
33867 H 108.73262107100244 65.86466229366475 26.630865809366114 H 0.0 **** 0.06
33868 H 107.99443298567407 65.57875691103015 25.036599879048026 H 0.0 **** 0.06
33869 H 109.04633407029412 64.34201326063092 25.765832092837456 H 0.0 **** 0.06
33870 H 109.74618437853 65.86528196533057 25.167526667010364 H 0.0 **** 0.06
33871 C 109.51380777848459 117.249572528073 127.42363441240789 C 0.0 **** -0.24
33872 H 108.8770510772016 118.13340738669248 127.37946696872183 H 0.0 **** 0.06
33873 H 110.55612990807703 117.55773885318283 127.50325837179258 H 0.0 **** 0.06
33874 H 109.37781994874621 116.6589012911451 126.51734708247935 H 0.0 **** 0.06
33875 H 109.24371330495455 116.65071902260453 128.29285262881473 H 0.0 **** 0.06
33876 C 120.52635499930382 90.14184944584414 74.49458042178328 C 0.0 **** -0.24
33877 H 121.12314739651153 89.33879742039849 74.92638494881241 H 0.0 **** 0.06
33878 H 119.56953473101449 89.74269528609176 74.15805133473533 H 0.0 **** 0.06
33879 H 121.05914093244154 90.57356538999261 73.6459753967611 H 0.0 **** 0.06
33880 H 120.35599795816024 90.91213451578881 75.2461229991206 H 0.0 **** 0.06
33881 C 122.65484467335806 67.16432753841141 84.01273751592294 C 0.0 **** -0.24
33882 H 122.97716090107168 66.80287593305192 83.03534764588805 H 0.0 **** 0.06
33883 H 121.56517234148477 67.20389818231007 84.0437592638896 H 0.0 **** 0.06
33884 H 123.0597524440971 68.16148063335439 84.18237610982709 H 0.0 **** 0.06
33885 H 123.01639333477327 66.48794409877698 84.78774779793626 H 0.0 **** 0.06
33886 C 39.56703560251913 19.695113838884794 134.6397815598499 C 0.0 **** -0.24
33887 H 40.43870899186014 20.200631342919422 134.22475815061784 H 0.0 **** 0.06
33888 H 38.65985139948869 20.18839870295062 134.28814134258891 H 0.0 **** 0.06
33889 H 39.605313686630495 19.738832927628494 135.727626341215 H 0.0 **** 0.06
33890 H 39.56321235048057 18.653902593316843 134.3171278331979 H 0.0 **** 0.06
33891 C 145.13197823285037 97.26882179501777 69.18823515126257 C 0.0 **** -0.24
33892 H 145.8139724339339 96.578648489659 69.68388782408118 H 0.0 **** 0.06
33893 H 144.36782869136354 97.59456501915216 69.89460386897963 H 0.0 **** 0.06
33894 H 144.6581872820479 96.76841317204202 68.34470437624594 H 0.0 **** 0.06
33895 H 145.68918296671077 98.13599312619439 68.83115008425267 H 0.0 **** 0.06
33896 C 21.85897932079176 132.98220410121655 29.853993492483454 C 0.0 **** -0.24
33897 H 20.940649822173796 132.66236443529183 30.347088255798525 H 0.0 **** 0.06
33898 H 22.6156219292195 132.20514411759106 29.95665598586443 H 0.0 **** 0.06
33899 H 22.216701633214676 133.90312011372723 30.31498629260986 H 0.0 **** 0.06
33900 H 21.66071227682859 133.15804222125368 28.79624396012619 H 0.0 **** 0.06
33901 C 45.82723733463615 120.10472616433451 46.982977552385236 C 0.0 **** -0.24
33902 H 45.74180281707123 120.86670365456489 47.75761884910108 H 0.0 **** 0.06
33903 H 45.63993329361327 119.12301563048227 47.417510060841266 H 0.0 **** 0.06
33904 H 46.831384940960874 120.12945919823026 46.55948166619545 H 0.0 **** 0.06
33905 H 45.096814258005026 120.30134225258364 46.19848974667346 H 0.0 **** 0.06
33906 C 133.94684422645935 140.1128845134368 115.11249177027828 C 0.0 **** -0.24
33907 H 134.53534705805356 139.63246828351728 114.3311355518823 H 0.0 **** 0.06
33908 H 133.68205389971905 139.376920975662 115.87183205061537 H 0.0 **** 0.06
33909 H 133.0371457180281 140.52912496014878 114.67773035760824 H 0.0 **** 0.06
33910 H 134.53027442153592 140.91194110479145 115.56775387307987 H 0.0 **** 0.06
33911 C 81.66968889836336 106.90286333809259 112.70944188831278 C 0.0 **** -0.24
33912 H 81.85985344845903 107.9373410151508 112.9962995140604 H 0.0 **** 0.06
33913 H 82.61378206738189 106.41257876692224 112.47000282701474 H 0.0 **** 0.06
33914 H 81.01671898012768 106.88268873203238 111.83704968504286 H 0.0 **** 0.06
33915 H 81.188371109215 106.3795658284259 113.5356318170884 H 0.0 **** 0.06
33916 C 44.392771129578094 117.89467321699506 18.99660559859575 C 0.0 **** -0.24
33917 H 44.821282589179305 116.94061495934115 18.690153886992732 H 0.0 **** 0.06
33918 H 44.370903086949696 117.95165377968245 20.08486471184807 H 0.0 **** 0.06
33919 H 43.378146056707365 117.97995287585515 18.607539745563145 H 0.0 **** 0.06
33920 H 45.001998166401734 118.70871161774137 18.60230514466815 H 0.0 **** 0.06
33921 C 96.9818474614002 99.78649031101156 143.44651972856275 C 0.0 **** -0.24
33922 H 97.99329727383568 99.40088208340529 143.32253011499154 H 0.0 **** 0.06
33923 H 96.69740498861762 100.3517485002958 142.55873395668004 H 0.0 **** 0.06
33924 H 96.94584713034806 100.43863742322878 144.31881439773196 H 0.0 **** 0.06
33925 H 96.29050335897946 98.95557792340367 143.5863225342935 H 0.0 **** 0.06
33926 C 119.91058303402205 27.159779235338107 134.81742017507977 C 0.0 **** -0.24
33927 H 120.34629189423394 27.502152612602714 133.87791433298943 H 0.0 **** 0.06
33928 H 119.56932791404749 26.130894913043022 134.70562184314684 H 0.0 **** 0.06
33929 H 119.06665621339151 27.797031831244226 135.07942303092148 H 0.0 **** 0.06
33930 H 120.66293096272857 27.21080545590476 135.6054524599262 H 0.0 **** 0.06
33931 C 58.27373516631593 41.55309690914601 8.505047675313648 C 0.0 **** -0.24
33932 H 58.01481918168227 42.23584348194174 7.695091766022216 H 0.0 **** 0.06
33933 H 58.450953745198035 42.12300594924038 9.417286224132909 H 0.0 **** 0.06
33934 H 59.17553790530454 41.00171428138876 8.239889436970202 H 0.0 **** 0.06
33935 H 57.45394551040786 40.85324885748675 8.665302147356414 H 0.0 **** 0.06
33936 C 110.4492906553201 38.813992707921784 81.32067613310379 C 0.0 **** -0.24
33937 H 110.85788340789922 38.33406140750486 82.20968107370821 H 0.0 **** 0.06
33938 H 110.8531021594052 39.82323939424549 81.23488958969291 H 0.0 **** 0.06
33939 H 109.36322755752231 38.86254818950903 81.40171454846332 H 0.0 **** 0.06
33940 H 110.72256977255428 38.236237546572056 80.43777671114077 H 0.0 **** 0.06
33941 C 80.04777455273631 2.2823587311614517 86.78272972340744 C 0.0 **** -0.24
33942 H 79.58326210345118 1.5180467462401168 86.16036951056336 H 0.0 **** 0.06
33943 H 81.13119087992672 2.1582348383745114 86.76205887077944 H 0.0 **** 0.06
33944 H 79.6899042456507 2.183783760633446 87.80727874035048 H 0.0 **** 0.06
33945 H 79.7886636403529 3.2697193568217244 86.40012491467789 H 0.0 **** 0.06
33946 C 65.75165508202835 83.40557164752914 139.90045814105306 C 0.0 **** -0.24
33947 H 66.56397610206957 83.21265545994856 139.19829086072335 H 0.0 **** 0.06
33948 H 65.4612829715089 84.45463648550265 139.83908288390094 H 0.0 **** 0.06
33949 H 66.08632424209699 83.17966915620542 140.9126960058122 H 0.0 **** 0.06
33950 H 64.89822810360982 82.77596733099818 139.64991739056242 H 0.0 **** 0.06
33951 C 65.73416833659452 28.453101027399953 45.46593536234769 C 0.0 **** -0.24
33952 H 66.1682423122374 27.742909169300447 44.76238707659098 H 0.0 **** 0.06
33953 H 64.71548431294009 28.149274092293894 45.706486688948814 H 0.0 **** 0.06
33954 H 65.72031678860048 29.44682310787661 45.01603921401386 H 0.0 **** 0.06
33955 H 66.33255323880158 28.474923380701966 46.37644794712986 H 0.0 **** 0.06
33956 C 99.09361581073233 102.89034285135631 33.15496116483055 C 0.0 **** -0.24
33957 H 99.81890992959865 102.14066039148696 32.83869142725601 H 0.0 **** 0.06
33958 H 98.25600613327254 102.39813742316545 33.6489750639536 H 0.0 **** 0.06
33959 H 98.73237059798436 103.43614167190026 32.28344384833295 H 0.0 **** 0.06
33960 H 99.56722525717942 103.58476787344637 33.8482560786274 H 0.0 **** 0.06
33961 C 80.3671751212233 14.466254366831663 75.96888697123055 C 0.0 **** -0.24
33962 H 79.4946400220691 15.116438886573377 75.90745020991392 H 0.0 **** 0.06
33963 H 81.27080172932263 15.054317541949928 75.80297546006742 H 0.0 **** 0.06
33964 H 80.29508456143603 13.688510361547571 75.2087513908682 H 0.0 **** 0.06
33965 H 80.40950762951546 14.006197635341238 76.95651984441633 H 0.0 **** 0.06
33966 C 44.44782014262822 103.55175640876561 50.8884281073162 C 0.0 **** -0.24
33967 H 44.208691723489835 104.05169992929217 49.950332200565754 H 0.0 **** 0.06
33968 H 44.8703084806873 104.27413764991701 51.58792071584952 H 0.0 **** 0.06
33969 H 45.17250506145271 102.75858566368225 50.703298817289976 H 0.0 **** 0.06
33970 H 43.539969358570005 103.12305861764176 51.31302916845385 H 0.0 **** 0.06
33971 C 84.3385644579247 114.42088438915759 71.4485026485134 C 0.0 **** -0.24
33972 H 84.72741681705062 115.09744033083133 72.20925739128238 H 0.0 **** 0.06
33973 H 83.56213370374738 114.9275749001901 70.87402203771245 H 0.0 **** 0.06
33974 H 83.9164548496275 113.53771384468486 71.92980010242985 H 0.0 **** 0.06
33975 H 85.14637150550833 114.12013332115937 70.78193424910813 H 0.0 **** 0.06
33976 C 55.216589084363534 118.91616161968874 109.32164980448208 C 0.0 **** -0.24
33977 H 55.17326003776077 119.56354378535222 108.44521391622926 H 0.0 **** 0.06
33978 H 55.58136315373187 117.93180554020744 109.02820153870353 H 0.0 **** 0.06
33979 H 54.220197969234704 118.82172087112333 109.75280936398009 H 0.0 **** 0.06
33980 H 55.89263536829884 119.35009559778037 110.05917314133949 H 0.0 **** 0.06
33981 C 55.29414618053312 110.89725704770655 136.14682091103293 C 0.0 **** -0.24
33982 H 54.79073704946268 110.51554730457116 137.03569202867126 H 0.0 **** 0.06
33983 H 56.06120843059092 111.6132764394676 136.44412999418668 H 0.0 **** 0.06
33984 H 54.56687905914177 111.38973100238564 135.50149554706556 H 0.0 **** 0.06
33985 H 55.756969993590275 110.06989526287799 135.60880186335046 H 0.0 **** 0.06
33986 C 141.1130432193214 70.0168992701729 59.88247517416079 C 0.0 **** -0.24
33987 H 140.21604491504587 69.40390717386325 59.971719996708515 H 0.0 **** 0.06
33988 H 140.86994974384166 71.05300281380872 60.121901541335774 H 0.0 **** 0.06
33989 H 141.49322366812336 69.95927251273761 58.86291063593663 H 0.0 **** 0.06
33990 H 141.8715176649573 69.65321895744958 60.57528684921425 H 0.0 **** 0.06
33991 C 19.103563608409416 126.84962147951109 81.3056266872245 C 0.0 **** -0.24
33992 H 19.288653165083474 125.8874464200361 80.8282171134912 H 0.0 **** 0.06
33993 H 18.145193338873014 126.81853464399461 81.82454571597086 H 0.0 **** 0.06
33994 H 19.08177754075095 127.63270979899477 80.54689418940775 H 0.0 **** 0.06
33995 H 19.89790503370881 127.05974224152493 82.02098660221026 H 0.0 **** 0.06
33996 C 72.5261300805865 29.531181344581455 21.838000267759384 C 0.0 **** -0.24
33997 H 73.38404557549967 29.424432840781208 21.17280199987311 H 0.0 **** 0.06
33998 H 71.91704297584256 30.37387553696479 21.511967656686828 H 0.0 **** 0.06
33999 H 72.87650766461047 29.707647344658568 22.854572528766454 H 0.0 **** 0.06
34000 H 71.93110235277446 28.619496343135438 21.811651407259973 H 0.0 **** 0.06
34001 C 125.61686873480043 54.58232003432694 38.238975269502916 C 0.0 **** -0.24
34002 H 124.59723434114292 54.39275706601585 37.90345852885938 H 0.0 **** 0.06
34003 H 126.09539413101075 55.29046525219937 37.56233600038921 H 0.0 **** 0.06
34004 H 126.1782406466266 53.64743732368261 38.2428270905727 H 0.0 **** 0.06
34005 H 125.59750920469241 54.99818541753916 39.246282115987896 H 0.0 **** 0.06
34006 C 41.51538916392454 106.82183589313225 27.710090483307198 C 0.0 **** -0.24
34007 H 41.546935450118724 107.711912102173 27.08159539483961 H 0.0 **** 0.06
34008 H 42.42676956606502 106.7659160841795 28.305956797481073 H 0.0 **** 0.06
34009 H 41.43738163835215 105.93553544794322 27.08104580392188 H 0.0 **** 0.06
34010 H 40.65077990160049 106.87533100383719 28.372044420170823 H 0.0 **** 0.06
34011 C 9.395546927610468 62.56140966368015 143.48091362425788 C 0.0 **** -0.24
34012 H 9.521323496790927 63.503289439365574 144.01334255521184 H 0.0 **** 0.06
34013 H 8.418391946758504 62.13920192142179 143.71484876425885 H 0.0 **** 0.06
34014 H 10.17564943312263 61.86483696288771 143.78632875803794 H 0.0 **** 0.06
34015 H 9.467808046822284 62.73906987725002 142.40727628518607 H 0.0 **** 0.06
34016 C 13.10755833474849 82.29960444557406 79.50827239740279 C 0.0 **** -0.24
34017 H 12.906673605491733 81.44414750528033 78.86360222563842 H 0.0 **** 0.06
34018 H 13.399704149386082 81.94832544688308 80.49805408954526 H 0.0 **** 0.06
34019 H 12.209081381689657 82.91198289188617 79.58951113925885 H 0.0 **** 0.06
34020 H 13.91505983402584 82.89500490601633 79.08101069664323 H 0.0 **** 0.06
34021 C 135.4468107663649 97.04675636296156 52.32430627396977 C 0.0 **** -0.24
34022 H 135.5046229250553 97.57215722838197 51.37036464172982 H 0.0 **** 0.06
34023 H 136.24047635960372 96.3013903615151 52.37634808391661 H 0.0 **** 0.06
34024 H 134.47872888871407 96.55412290263088 52.40938626547481 H 0.0 **** 0.06
34025 H 135.56493699161553 97.76013962513682 53.139374598358074 H 0.0 **** 0.06
34026 C 20.418384584917078 81.55734942203645 85.9374944204735 C 0.0 **** -0.24
34027 H 21.040010964737746 81.66843735604922 86.82641176622339 H 0.0 **** 0.06
34028 H 20.30608559093116 82.52712118596088 85.45089331632256 H 0.0 **** 0.06
34029 H 19.43783608428572 81.17830701193813 86.22420220343628 H 0.0 **** 0.06
34030 H 20.891028174709447 80.85750664623585 85.24874991190296 H 0.0 **** 0.06
34031 C 14.894870479782412 42.85823456846816 84.31082101856884 C 0.0 **** -0.24
34032 H 14.352014822339612 43.10254671792882 85.22437191617462 H 0.0 **** 0.06
34033 H 15.943331903218791 42.67732303511967 84.54804783980813 H 0.0 **** 0.06
34034 H 14.81822051751763 43.68869011633993 83.61024754953682 H 0.0 **** 0.06
34035 H 14.464040310920069 41.96224414165698 83.86158220682601 H 0.0 **** 0.06
34036 C 2.7534736183051223 87.49169895704361 102.84123902271274 C 0.0 **** -0.24
34037 H 2.662244909241224 87.1827290785653 103.88222451932009 H 0.0 **** 0.06
34038 H 1.760221516623801 87.60407206491706 102.40641785272429 H 0.0 **** 0.06
34039 H 3.310816701463011 86.73708755384379 102.2865975200022 H 0.0 **** 0.06
34040 H 3.2828025373785295 88.44386426168606 102.79024802821452 H 0.0 **** 0.06
34041 C 64.40006179217926 68.79110850816801 123.601115186076 C 0.0 **** -0.24
34042 H 63.59508192612509 68.33126015609781 124.17289900008838 H 0.0 **** 0.06
34043 H 64.36311454261408 68.436282609069 122.57096500536481 H 0.0 **** 0.06
34044 H 65.359156257118 68.52336022243185 124.04434712876501 H 0.0 **** 0.06
34045 H 64.28345650083145 69.8751121555049 123.61667892545368 H 0.0 **** 0.06
34046 C 77.76284126214232 93.1494681443576 56.463924572185164 C 0.0 **** -0.24
34047 H 77.01938186466829 93.80474978407901 56.920064994164846 H 0.0 **** 0.06
34048 H 77.50861286470997 92.98814392932209 55.416429318096874 H 0.0 **** 0.06
34049 H 77.77348493675696 92.19400819568583 56.987239813244486 H 0.0 **** 0.06
34050 H 78.74632406822872 93.61382209681474 56.53305382272592 H 0.0 **** 0.06
34051 C 93.62401947477497 21.27099468375772 46.11197050096399 C 0.0 **** -0.24
34052 H 93.82935781162819 20.311659142479343 46.587227688436144 H 0.0 **** 0.06
34053 H 94.55445175188144 21.69359755173754 45.73100259118564 H 0.0 **** 0.06
34054 H 93.1885619180221 21.95191781502521 46.842647762974366 H 0.0 **** 0.06
34055 H 92.92594196848378 21.126349760166306 45.28789616930408 H 0.0 **** 0.06
34056 C 27.93425799470215 30.79039619349919 98.02556371808629 C 0.0 **** -0.24
34057 H 27.266522865126817 29.931963771601183 97.96576076022029 H 0.0 **** 0.06
34058 H 27.390921817585067 31.647078577557636 98.42607969822802 H 0.0 **** 0.06
34059 H 28.30681472645727 31.03020193956926 97.02870682446778 H 0.0 **** 0.06
34060 H 28.77319331834331 30.55334387400267 98.67951294967096 H 0.0 **** 0.06
34061 C 28.126464352600877 41.76302594601759 29.06314537660964 C 0.0 **** -0.24
34062 H 28.416096517221234 41.78225608255873 30.113795322282897 H 0.0 **** 0.06
34063 H 27.161857266995113 41.26617087652056 28.96146407109702 H 0.0 **** 0.06
34064 H 28.877463099168835 41.22172066644066 28.488909088440614 H 0.0 **** 0.06
34065 H 28.050142785028 42.78396846220451 28.68934157301264 H 0.0 **** 0.06
34066 C 39.45222211536861 109.85195728766733 18.526258644890916 C 0.0 **** -0.24
34067 H 40.415344828866836 110.32215954927388 18.32680593192692 H 0.0 **** 0.06
34068 H 39.178692668951555 109.21500106290092 17.684708685672895 H 0.0 **** 0.06
34069 H 38.69289891929981 110.62191548308213 18.661012250466968 H 0.0 **** 0.06
34070 H 39.523315494620704 109.24870106516836 19.43073612497581 H 0.0 **** 0.06
34071 C 133.6201207625283 111.54952725542995 120.10925655960618 C 0.0 **** -0.24
34072 H 133.8818583613488 110.56672533657633 119.71899042805715 H 0.0 **** 0.06
34073 H 134.47512146276657 111.96918840098544 120.64037450422161 H 0.0 **** 0.06
34074 H 132.77724865220355 111.45639211874334 120.79471289355196 H 0.0 **** 0.06
34075 H 133.34676493656804 112.20675995246245 119.283856253851 H 0.0 **** 0.06
34076 C 5.129823347611971 19.125778639466034 10.90708549586131 C 0.0 **** -0.24
34077 H 5.384292661573159 19.38857684348045 9.880261084244637 H 0.0 **** 0.06
34078 H 5.790984047111724 18.33088274722155 11.252108601411152 H 0.0 **** 0.06
34079 H 4.096377893034795 18.78234976061603 10.947766847982876 H 0.0 **** 0.06
34080 H 5.2477586227367965 20.001004791801222 11.545222869727269 H 0.0 **** 0.06
34081 C 105.68338084196212 59.54957201863769 44.92409462418371 C 0.0 **** -0.24
34082 H 106.63452740934288 59.42295329048093 44.4075815313588 H 0.0 **** 0.06
34083 H 105.61349635677449 58.82762509691382 45.73818413356139 H 0.0 **** 0.06
34084 H 104.86536477839496 59.38685416760423 44.222517468360735 H 0.0 **** 0.06
34085 H 105.62088561088238 60.55995249600011 45.32682217942531 H 0.0 **** 0.06
34086 C 79.01939224278237 36.808299702174736 56.36877350971628 C 0.0 **** -0.24
34087 H 79.76297618553701 36.22991292846183 56.916640769965 H 0.0 **** 0.06
34088 H 78.61201957548678 36.201509204386355 55.559226871298904 H 0.0 **** 0.06
34089 H 79.48810659476499 37.70141039178719 55.95325800898033 H 0.0 **** 0.06
34090 H 78.2158423593255 37.10103589051971 57.044680316258564 H 0.0 **** 0.06
34091 C 118.65878453534823 38.14515401710537 54.744018322559995 C 0.0 **** -0.24
34092 H 118.88537980584458 38.39099379936914 53.707130561241 H 0.0 **** 0.06
34093 H 118.00368498424272 38.909572847476795 55.164110464682295 H 0.0 **** 0.06
34094 H 119.58479531265137 38.104712117469035 55.31853154025609 H 0.0 **** 0.06
34095 H 118.16120066659083 37.17661371137268 54.78838999669614 H 0.0 **** 0.06
34096 C 74.70345188330407 114.13363764508689 137.87758109493473 C 0.0 **** -0.24
34097 H 73.63698160538142 114.14709862263409 137.65148848319814 H 0.0 **** 0.06
34098 H 74.87339870860855 114.58841332127206 138.85380396091176 H 0.0 **** 0.06
34099 H 75.24359701690877 114.69578420483533 137.11525018786125 H 0.0 **** 0.06
34100 H 75.05873834254703 113.10253651523452 137.88924089132755 H 0.0 **** 0.06
34101 C 62.368224424841515 65.5494132296335 99.91831942680615 C 0.0 **** -0.24
34102 H 61.36773475899557 65.14300178967648 100.06305028913951 H 0.0 **** 0.06
34103 H 62.993289628015845 65.28754008678243 100.77195742970704 H 0.0 **** 0.06
34104 H 62.31081996397782 66.6345048754427 99.82915234048046 H 0.0 **** 0.06
34105 H 62.80181836909557 65.13320445613172 99.00935605229488 H 0.0 **** 0.06
34106 C 117.68706229072045 61.63723610502903 133.4408997796989 C 0.0 **** -0.24
34107 H 117.32541908328359 61.83851056548427 134.44979607025385 H 0.0 **** 0.06
34108 H 117.65091585727636 62.554276606343066 132.85341699671727 H 0.0 **** 0.06
34109 H 117.05682686768601 60.8797954384991 132.9747744228343 H 0.0 **** 0.06
34110 H 118.71418651305463 61.276215840279704 133.48863943581506 H 0.0 **** 0.06
34111 C 144.04669786200304 21.043226701164997 72.03136078971076 C 0.0 **** -0.24
34112 H 143.45620673514486 21.246738140045522 72.92347968691607 H 0.0 **** 0.06
34113 H 144.95943280843377 20.516558455964173 72.31245407239632 H 0.0 **** 0.06
34114 H 144.30422118664202 21.983212470964617 71.54328355541517 H 0.0 **** 0.06
34115 H 143.46778719101152 20.42556740090538 71.34497000754149 H 0.0 **** 0.06
34116 C 84.82117309364773 37.86351093449756 50.71397084662348 C 0.0 **** -0.24
34117 H 85.13935271569889 36.98011991627982 51.26807188182366 H 0.0 **** 0.06
34118 H 84.99351117636118 37.706243504426624 49.64959384412228 H 0.0 **** 0.06
34119 H 85.39078800834412 38.72904079882129 51.05131750648482 H 0.0 **** 0.06
34120 H 83.75819934207831 38.037982400833634 50.88848023167762 H 0.0 **** 0.06
34121 C 34.112063587551546 55.49738406903083 122.69887950272631 C 0.0 **** -0.24
34122 H 33.407688851967265 54.66543810949281 122.71620201625991 H 0.0 **** 0.06
34123 H 33.8368041827986 56.18868382737054 121.90159419988372 H 0.0 **** 0.06
34124 H 35.117932675396844 55.11707629354197 122.51893978988211 H 0.0 **** 0.06
34125 H 34.084984479946996 56.015986600228985 123.65712113433035 H 0.0 **** 0.06
34126 C 104.03080057969663 3.4926710698750867 90.9110702797224 C 0.0 **** -0.24
34127 H 103.19843547318592 3.952349488913171 91.44473123304958 H 0.0 **** 0.06
34128 H 103.79839159165738 2.4466938193420447 90.70743675287284 H 0.0 **** 0.06
34129 H 104.9313485467115 3.55286600214032 91.5208733252621 H 0.0 **** 0.06
34130 H 104.19334479173034 4.019145261094366 89.96981353196114 H 0.0 **** 0.06
34131 C 58.10379923937323 139.15250935017318 46.3745565399374 C 0.0 **** -0.24
34132 H 58.610596273482514 138.18720389581554 46.3908684471086 H 0.0 **** 0.06
34133 H 58.07170970327148 139.52836743648274 45.35171203814144 H 0.0 **** 0.06
34134 H 58.64553972102428 139.85777399916012 47.00452868716508 H 0.0 **** 0.06
34135 H 57.0873861112654 139.03447226202442 46.75084966780531 H 0.0 **** 0.06
34136 C 132.95003696092513 23.974749313051746 79.3836568254631 C 0.0 **** -0.24
34137 H 132.3242630038544 24.213654916488792 80.24307344572581 H 0.0 **** 0.06
34138 H 133.53088065860453 24.854400674440512 79.102121606919 H 0.0 **** 0.06
34139 H 132.3195598039199 23.672521803685356 78.54744812970067 H 0.0 **** 0.06
34140 H 133.62639762475368 23.160414669611725 79.64231917584675 H 0.0 **** 0.06
34141 C 97.54844386575544 18.20621551094277 18.928133637277 C 0.0 **** -0.24
34142 H 97.79480415599095 19.208319664832587 18.57586838544202 H 0.0 **** 0.06
34143 H 98.26645963143683 17.903641883192826 19.69042718980566 H 0.0 **** 0.06
34144 H 97.58859358190145 17.50815314081204 18.09290327702115 H 0.0 **** 0.06
34145 H 96.54494203313627 18.20804956880533 19.353117853443592 H 0.0 **** 0.06
34146 C 79.98842620052368 104.4970553499511 128.74885031715274 C 0.0 **** -0.24
34147 H 80.8976604303625 105.01396320833061 129.05432902185044 H 0.0 **** 0.06
34148 H 79.68634143267975 103.7993603414879 129.53022563384093 H 0.0 **** 0.06
34149 H 80.17624459471864 103.94871296411912 127.8257101452954 H 0.0 **** 0.06
34150 H 79.19491729937968 105.22506852016926 128.58386155734735 H 0.0 **** 0.06
34151 C 57.155854024177074 38.61659987945666 0.7662826569180936 C 0.0 **** -0.24
34152 H 57.521137902938165 39.40222525062234 1.427789547385828 H 0.0 **** 0.06
34153 H 56.13960148054042 38.3437961929792 1.054541061676133 H 0.0 **** 0.06
34154 H 57.80332793370485 37.74404820874528 0.8465382929949783 H 0.0 **** 0.06
34155 H 57.15659496783525 38.97775789053604 -0.26164593665748725 H 0.0 **** 0.06
34156 C 131.73469476695692 92.68319456855659 145.19362400670815 C 0.0 **** -0.24
34157 H 131.72843820832338 92.00191916071998 144.34300155551148 H 0.0 **** 0.06
34158 H 132.18648127987643 93.63032587976602 144.89711571768845 H 0.0 **** 0.06
34159 H 132.31089925993504 92.24317527772939 146.0067268562742 H 0.0 **** 0.06
34160 H 130.71044498912312 92.85676742151509 145.5258284890237 H 0.0 **** 0.06
34161 C 26.448544543030586 67.8319484576146 13.817377002196942 C 0.0 **** -0.24
34162 H 26.15045242889883 68.09123862951259 14.833212909597925 H 0.0 **** 0.06
34163 H 27.27334144462808 68.47366757971325 13.506707470382025 H 0.0 **** 0.06
34164 H 25.60403854788825 67.97302238799394 13.143304573627425 H 0.0 **** 0.06
34165 H 26.76742565407657 66.7896327065466 13.787617173276843 H 0.0 **** 0.06
34166 C 58.22972047817319 33.382059013287886 70.50097093403991 C 0.0 **** -0.24
34167 H 57.879694329388315 32.6191514748941 69.80521544383699 H 0.0 **** 0.06
34168 H 58.45219499506419 32.920967489014515 71.46386897803681 H 0.0 **** 0.06
34169 H 57.45448102514342 34.13759680458114 70.62947129768173 H 0.0 **** 0.06
34170 H 59.13064162744223 33.849574899648395 70.10454711569243 H 0.0 **** 0.06
34171 C 117.78589071367112 5.503703328389378 122.85774486472383 C 0.0 **** -0.24
34172 H 116.82559228489502 5.306252409187721 123.33453514934104 H 0.0 **** 0.06
34173 H 117.62651400173111 5.753699765681176 121.8095828193624 H 0.0 **** 0.06
34174 H 118.41509980970305 4.615964855920936 122.92913994255633 H 0.0 **** 0.06
34175 H 118.2765663239942 6.3370023441426895 123.36094174798262 H 0.0 **** 0.06
34176 C 14.961891901643128 119.37413741004535 65.65568318766333 C 0.0 **** -0.24
34177 H 14.482061716140116 118.51822742863003 66.13097995859192 H 0.0 **** 0.06
34178 H 14.309861564927488 119.76840424112807 64.87568380236871 H 0.0 **** 0.06
34179 H 15.907681331597054 119.06192954747412 65.21482218393419 H 0.0 **** 0.06
34180 H 15.145897584117833 120.14713201754587 66.4012763115847 H 0.0 **** 0.06
34181 C 137.1458285575766 120.43645753566811 27.185702199814436 C 0.0 **** -0.24
34182 H 137.4721719108243 119.40041808879822 27.281911460303547 H 0.0 **** 0.06
34183 H 137.25694379045606 120.94225702925162 28.144687164202367 H 0.0 **** 0.06
34184 H 136.0998248204465 120.46031490854882 26.880058772818657 H 0.0 **** 0.06
34185 H 137.75565883996447 120.94013494956074 26.435975604897976 H 0.0 **** 0.06
34186 C 94.48695217676018 112.69163307496612 91.82745093856792 C 0.0 **** -0.24
34187 H 94.04323203650378 111.94037670908287 92.48165523135918 H 0.0 **** 0.06
34188 H 94.04292965186522 112.6163649204855 90.83506261778416 H 0.0 **** 0.06
34189 H 95.56143463306816 112.52408693777957 91.75991874180517 H 0.0 **** 0.06
34190 H 94.29855904051422 113.68460112101056 92.23582256882605 H 0.0 **** 0.06
34191 C 11.703918063966263 5.349080392453629 77.4862180432468 C 0.0 **** -0.24
34192 H 10.96268197515895 6.0326497669409775 77.07035636617725 H 0.0 **** 0.06
34193 H 11.680010418154438 5.407097995205476 78.57463170523998 H 0.0 **** 0.06
34194 H 12.694856377556519 5.625434673178489 77.12810716678356 H 0.0 **** 0.06
34195 H 11.475185874683078 4.330621548639243 77.17145608641185 H 0.0 **** 0.06
34196 C 101.54587014972743 59.107497786883016 14.662458952957167 C 0.0 **** -0.24
34197 H 101.90981739624497 58.67841472354348 13.729155678520272 H 0.0 **** 0.06
34198 H 100.62529912945021 58.60483845124281 14.959208828513653 H 0.0 **** 0.06
34199 H 101.34995621043686 60.17074946576014 14.521297615410873 H 0.0 **** 0.06
34200 H 102.29821112119188 58.977680412976554 15.440488137967975 H 0.0 **** 0.06
34201 C 48.509102038893104 112.60712333104473 0.5574803038686014 C 0.0 **** -0.24
34202 H 48.063441823920385 113.59818181163914 0.6453380063649945 H 0.0 **** 0.06
34203 H 48.13203329953345 111.96729838318075 1.355282971102696 H 0.0 **** 0.06
34204 H 49.592925434408684 112.68800469141328 0.6384922482240825 H 0.0 **** 0.06
34205 H 48.2474037785243 112.17580558623322 -0.40919283540813467 H 0.0 **** 0.06
34206 C 107.79900346999013 17.86429016404871 59.27684622008289 C 0.0 **** -0.24
34207 H 107.03816259910495 18.549604595390463 58.90228884463535 H 0.0 **** 0.06
34208 H 107.68403151344127 16.89506934964612 58.79105575054554 H 0.0 **** 0.06
34209 H 107.68382943248734 17.746999702595872 60.35433022480103 H 0.0 **** 0.06
34210 H 108.78822079900773 18.265209587696916 59.05803911978023 H 0.0 **** 0.06
34211 C 36.86719945770407 28.243221998146005 140.76578757022767 C 0.0 **** -0.24
34212 H 36.635858111479614 28.448565072365938 139.7208697384518 H 0.0 **** 0.06
34213 H 35.93975217267521 28.18429223143471 141.33760032074335 H 0.0 **** 0.06
34214 H 37.49020703910419 29.043610154634237 141.16479414026585 H 0.0 **** 0.06
34215 H 37.40053713705035 27.29479644351906 140.8405127099915 H 0.0 **** 0.06
34216 C 73.99966573242892 132.98972781104126 102.66577648631625 C 0.0 **** -0.24
34217 H 73.41676748637937 133.53900626719982 103.40565468134764 H 0.0 **** 0.06
34218 H 73.44966285847201 132.95111812604523 101.72540473237501 H 0.0 **** 0.06
34219 H 74.17949387938117 131.97635860333963 103.02506549730927 H 0.0 **** 0.06
34220 H 74.95394227924132 133.4938275608191 102.50824339356308 H 0.0 **** 0.06
34221 C 16.503859436324248 122.72872159215822 83.62650606625411 C 0.0 **** -0.24
34222 H 16.658281793883326 121.65519518728806 83.52148865632637 H 0.0 **** 0.06
34223 H 16.328774943109686 123.1679778715426 82.64427938703619 H 0.0 **** 0.06
34224 H 17.38970317050058 123.18004608046405 84.07398009348088 H 0.0 **** 0.06
34225 H 15.640761113544592 122.91094805702963 84.26665424427537 H 0.0 **** 0.06
34226 C 102.94635408789398 52.9579440933978 103.54582850211541 C 0.0 **** -0.24
34227 H 103.83338296790808 53.064093481617775 104.17080369773561 H 0.0 **** 0.06
34228 H 102.40881960615026 53.90651878948718 103.5148012063454 H 0.0 **** 0.06
34229 H 102.298866458449 52.18704285314827 103.96310050445717 H 0.0 **** 0.06
34230 H 103.2443039560799 52.675895459796976 102.53596893639217 H 0.0 **** 0.06
34231 C 95.92107433835771 41.18037750188029 27.37320076467435 C 0.0 **** -0.24
34232 H 96.592545384562 40.84933965976285 26.581542102462386 H 0.0 **** 0.06
34233 H 96.49128314293975 41.71646900288795 28.13238832575449 H 0.0 **** 0.06
34234 H 95.43753286688288 40.31464298111868 27.824275285624516 H 0.0 **** 0.06
34235 H 95.16381294708951 41.84203025687671 26.953463128486888 H 0.0 **** 0.06
34236 C 14.655195169094583 31.808599691007714 104.6460383242594 C 0.0 **** -0.24
34237 H 14.179406843724507 31.946146541774 105.61637031614445 H 0.0 **** 0.06
34238 H 14.319383410858151 32.58860802542756 103.96306662851873 H 0.0 **** 0.06
34239 H 14.385505252238687 30.832334957923763 104.24397441272284 H 0.0 **** 0.06
34240 H 15.737879192992182 31.867071212038525 104.76073057141718 H 0.0 **** 0.06
34241 C 23.080429609268577 50.35051601842281 87.38476466036663 C 0.0 **** -0.24
34242 H 22.715276867343576 51.368790819096716 87.25078031487058 H 0.0 **** 0.06
34243 H 23.268265347084224 50.16976083538776 88.44367978737979 H 0.0 **** 0.06
34244 H 24.005776434990054 50.219468672942924 86.82343163916875 H 0.0 **** 0.06
34245 H 22.33226007576627 49.645395900960864 87.02224034744215 H 0.0 **** 0.06
34246 C 47.41008222204982 36.805789046278136 62.494254419203 C 0.0 **** -0.24
34247 H 47.99700831010938 35.88937747897748 62.4429957492668 H 0.0 **** 0.06
34248 H 47.87911227670884 37.49910752558404 63.1930277931495 H 0.0 **** 0.06
34249 H 46.40039091076693 36.57315108568176 62.83506082088246 H 0.0 **** 0.06
34250 H 47.36182970074623 37.262695703562656 61.50511643207693 H 0.0 **** 0.06
34251 C 42.40358950432707 123.29236806592382 27.348426882719693 C 0.0 **** -0.24
34252 H 41.85391712295089 123.2551525404977 28.288388652368198 H 0.0 **** 0.06
34253 H 41.751666875935626 122.98015912214933 26.533185007861775 H 0.0 **** 0.06
34254 H 43.263609835771575 122.62366342166716 27.404069519829413 H 0.0 **** 0.06
34255 H 42.74778709518668 124.31159160721063 27.16945107154544 H 0.0 **** 0.06
34256 C 89.47210145729366 16.21756224828394 77.61801229865793 C 0.0 **** -0.24
34257 H 89.14415394964897 15.845551850130619 78.58900952923287 H 0.0 **** 0.06
34258 H 90.40696094802979 15.729843525626876 77.3390425073978 H 0.0 **** 0.06
34259 H 89.62723504240716 17.29497235853549 77.67527418779187 H 0.0 **** 0.06
34260 H 88.7100893021767 15.999676868600119 76.8697013115995 H 0.0 **** 0.06
34261 C 120.01780922944135 63.928669429459106 104.82057717571678 C 0.0 **** -0.24
34262 H 119.10481860202992 64.40718832182922 105.17441706080156 H 0.0 **** 0.06
34263 H 119.78364344000448 62.93172263906344 104.44719482647943 H 0.0 **** 0.06
34264 H 120.72920422125486 63.85210350784179 105.64274547546573 H 0.0 **** 0.06
34265 H 120.4531574111025 64.52496505759703 104.01831823509158 H 0.0 **** 0.06
34266 C 7.3847845696742915 107.09098311936337 18.55523074875768 C 0.0 **** -0.24
34267 H 6.568111728966393 107.81314631603651 18.54113429646023 H 0.0 **** 0.06
34268 H 8.217970309954328 107.49696525324553 19.130585431357872 H 0.0 **** 0.06
34269 H 7.710554216607591 106.89186853306204 17.53432310763654 H 0.0 **** 0.06
34270 H 7.042271241926315 106.1641672138875 19.01508374644945 H 0.0 **** 0.06
34271 C 45.69846300977548 103.79242214014852 0.7078704082252649 C 0.0 **** -0.24
34272 H 44.69462876128392 103.46072098658624 0.9735262956949704 H 0.0 **** 0.06
34273 H 45.69442006924152 104.17892924357307 -0.3118240838511248 H 0.0 **** 0.06
34274 H 46.38913052600401 102.95100663218875 0.7746707142881455 H 0.0 **** 0.06
34275 H 46.0147901047215 104.57789559791343 1.3933968216151555 H 0.0 **** 0.06
34276 C 64.35712426904675 95.14869186325765 13.175680526852432 C 0.0 **** -0.24
34277 H 65.26125304629383 95.18532268087257 13.783178858152212 H 0.0 **** 0.06
34278 H 63.48883762290254 95.34527729481445 13.804776206814267 H 0.0 **** 0.06
34279 H 64.26277080196562 94.16116059742018 12.723061087126553 H 0.0 **** 0.06
34280 H 64.41640140872764 95.90331970495899 12.390558884024074 H 0.0 **** 0.06
34281 C 80.26948376669696 126.10457505329106 16.089113694493903 C 0.0 **** -0.24
34282 H 80.72374153340081 125.8316140115162 15.136582828554367 H 0.0 **** 0.06
34283 H 80.72394251694266 127.02424875238208 16.458119717787838 H 0.0 **** 0.06
34284 H 80.43181392512898 125.30414525318386 16.810957133855254 H 0.0 **** 0.06
34285 H 79.19942085380106 126.25748399130889 15.951410811818846 H 0.0 **** 0.06
34286 C 69.80787189119388 40.12179576622009 31.20529701269143 C 0.0 **** -0.24
34287 H 68.94443834258695 39.71844471718893 30.67608973559871 H 0.0 **** 0.06
34288 H 70.51241739896717 39.31754023515626 31.415750186638235 H 0.0 **** 0.06
34289 H 69.4803220319845 40.573038493408006 32.14184225130816 H 0.0 **** 0.06
34290 H 70.29123870528751 40.87784626885767 30.586819816348722 H 0.0 **** 0.06
34291 C 80.43609172421378 124.29435398736462 99.3276198283778 C 0.0 **** -0.24
34292 H 79.58046262420751 123.62421479694603 99.23770177544816 H 0.0 **** 0.06
34293 H 80.26160290388401 125.18750501975074 98.7271226925302 H 0.0 **** 0.06
34294 H 81.33233862086246 123.78706791638308 98.97220290817904 H 0.0 **** 0.06
34295 H 80.56767392190699 124.57718767036755 100.3718128706746 H 0.0 **** 0.06
34296 C 72.61084610022132 81.93029691559548 95.78767928212264 C 0.0 **** -0.24
34297 H 71.76650903392823 82.53760084109163 96.11490059457581 H 0.0 **** 0.06
34298 H 73.15812164336054 81.57140494207539 96.66019976516378 H 0.0 **** 0.06
34299 H 73.27244331383994 82.53436942398797 95.16633279790409 H 0.0 **** 0.06
34300 H 72.24563339700777 81.0801614796223 95.21211669915627 H 0.0 **** 0.06
34301 C 3.159059715398868 37.17337073583755 79.2777560596576 C 0.0 **** -0.24
34302 H 2.4795330577671244 36.32551706537524 79.18788060616714 H 0.0 **** 0.06
34303 H 2.5825278900248776 38.098916373237984 79.30292134823347 H 0.0 **** 0.06
34304 H 3.8346302384579047 37.18859215094102 78.42350223441125 H 0.0 **** 0.06
34305 H 3.7360642409570772 37.079602181225795 80.19708738155316 H 0.0 **** 0.06
34306 C 55.41462787416282 141.6510204010033 69.666782308139 C 0.0 **** -0.24
34307 H 55.72748704434618 141.74870048153346 68.6265175811778 H 0.0 **** 0.06
34308 H 56.137383357949986 141.03984952851843 70.20729833008605 H 0.0 **** 0.06
34309 H 54.434340833475574 141.1757057115267 69.70692178409507 H 0.0 **** 0.06
34310 H 55.35908077689432 142.63856750677175 70.12317146861781 H 0.0 **** 0.06
34311 C 49.258248313185874 61.71915128507864 87.07852313104846 C 0.0 **** -0.24
34312 H 49.04236537102 61.15555808156557 87.98701595884754 H 0.0 **** 0.06
34313 H 48.51008895405195 62.501999422735835 86.95074089859938 H 0.0 **** 0.06
34314 H 49.23386388108909 61.04856174391301 86.22048531498976 H 0.0 **** 0.06
34315 H 50.247231563513736 62.17088266942871 87.15877152443196 H 0.0 **** 0.06
34316 C 134.92298777772524 123.19432808394183 59.359931394447045 C 0.0 **** -0.24
34317 H 135.4812931508582 124.1091585497825 59.56159268787442 H 0.0 **** 0.06
34318 H 134.30131160860765 123.33582089099846 58.47552229906347 H 0.0 **** 0.06
34319 H 134.29085285898717 122.95943587985866 60.21597868918954 H 0.0 **** 0.06
34320 H 135.6203791273933 122.37562449989016 59.18670732199206 H 0.0 **** 0.06
34321 C 98.26178769312666 126.13614705434043 140.71809140373875 C 0.0 **** -0.24
34322 H 97.48591158114505 126.5575733350058 140.08012668773017 H 0.0 **** 0.06
34323 H 99.24176491986236 126.38279542454202 140.30965890153755 H 0.0 **** 0.06
34324 H 98.1476755701303 125.05297455429141 140.76137716783353 H 0.0 **** 0.06
34325 H 98.1713766969494 126.55084865598138 141.7228353501822 H 0.0 **** 0.06
34326 C 71.21156034739013 64.59957141659059 21.875576527608985 C 0.0 **** -0.24
34327 H 71.46232320427131 64.17574525634916 20.902528571093114 H 0.0 **** 0.06
34328 H 72.12537843935247 64.90750490190746 22.383647739522587 H 0.0 **** 0.06
34329 H 70.69696112090132 63.8500705824801 22.475500656987037 H 0.0 **** 0.06
34330 H 70.56378033601345 65.46463362403824 21.73779307585687 H 0.0 **** 0.06
34331 C 106.85054114625332 70.60461689820205 96.8149808821172 C 0.0 **** -0.24
34332 H 106.10285731008766 69.82057500061298 96.69454381481968 H 0.0 **** 0.06
34333 H 107.74225078836115 70.18747799359566 97.2825511233299 H 0.0 **** 0.06
34334 H 106.44651135379705 71.39856651566438 97.44223025968962 H 0.0 **** 0.06
34335 H 107.10977334449957 71.01086302104456 95.83707205674794 H 0.0 **** 0.06
34336 C 89.6505331018484 30.346805651376307 4.018755005608682 C 0.0 **** -0.24
34337 H 89.50437995853201 31.380746812377808 3.7078325305097337 H 0.0 **** 0.06
34338 H 89.11942179972925 30.17035071277651 4.95423207422067 H 0.0 **** 0.06
34339 H 90.71503313729153 30.158677514566918 4.1638323660790775 H 0.0 **** 0.06
34340 H 89.26561257840831 29.677941278959217 3.2484929911668416 H 0.0 **** 0.06
34341 C 93.39741315513473 27.51514335748675 31.487184308509654 C 0.0 **** -0.24
34342 H 92.94105806063254 28.503786507507016 31.45451036353623 H 0.0 **** 0.06
34343 H 94.34252364528339 27.56850422731776 32.02743672074038 H 0.0 **** 0.06
34344 H 93.57918489558148 27.164852699657388 30.471004010830114 H 0.0 **** 0.06
34345 H 92.72669106523034 26.822355423442218 31.99488759825752 H 0.0 **** 0.06
34346 C 101.83628090417096 118.01241189739538 81.30099996804881 C 0.0 **** -0.24
34347 H 102.84404716302771 117.86902446368903 81.68977763301814 H 0.0 **** 0.06
34348 H 101.1785704460393 117.24012085600167 81.70139658500125 H 0.0 **** 0.06
34349 H 101.85337159513311 117.94697782334286 80.21376120690374 H 0.0 **** 0.06
34350 H 101.46806178994925 118.9941730075886 81.60091622152567 H 0.0 **** 0.06
34351 C 46.05294370963496 135.87749268088066 105.0428337195559 C 0.0 **** -0.24
34352 H 47.01325431789789 136.36329146529718 105.21481324971144 H 0.0 **** 0.06
34353 H 46.21909142986483 134.87143858211434 104.65763768781449 H 0.0 **** 0.06
34354 H 45.479802053661174 136.45454050786162 104.31604735926206 H 0.0 **** 0.06
34355 H 45.50004533606641 135.82253467408097 105.98049991554576 H 0.0 **** 0.06
34356 C 110.02182743970533 72.91250595241367 120.97074685297447 C 0.0 **** -0.24
34357 H 109.69185711537384 72.05400960438863 121.55622830217523 H 0.0 **** 0.06
34358 H 109.89799683414188 73.82234762963712 121.5587757942884 H 0.0 **** 0.06
34359 H 109.4252594903779 72.98319239392049 120.06115188167023 H 0.0 **** 0.06
34360 H 111.07289635243902 72.78988713683844 120.70791097939401 H 0.0 **** 0.06
34361 C 37.273570264006764 49.08293118325162 58.334194259927756 C 0.0 **** -0.24
34362 H 37.44147421044322 48.14985484711724 58.872271134504246 H 0.0 **** 0.06
34363 H 36.20848277873219 49.31623290028327 58.33640479037116 H 0.0 **** 0.06
34364 H 37.62125177672368 48.97760026037888 57.306732903362104 H 0.0 **** 0.06
34365 H 37.82321130446586 49.88730970279671 58.82347826640404 H 0.0 **** 0.06
34366 C 108.03617987543424 129.7496729991011 55.446576997032764 C 0.0 **** -0.24
34367 H 107.7410554594785 129.25034317781873 56.370152799393296 H 0.0 **** 0.06
34368 H 108.64364038082715 130.6232207124601 55.68452667661032 H 0.0 **** 0.06
34369 H 107.14464318245217 130.06318087925447 54.90309190249758 H 0.0 **** 0.06
34370 H 108.61376642720808 129.0618206451475 54.83007902084506 H 0.0 **** 0.06
34371 C 65.22178568139425 22.904621070196868 92.01235800655928 C 0.0 **** -0.24
34372 H 65.59345665214508 23.64633678231104 92.71939081455605 H 0.0 **** 0.06
34373 H 64.13242820186365 22.87623848859613 92.05415103816014 H 0.0 **** 0.06
34374 H 65.62060615461925 21.92404465800098 92.27176698237028 H 0.0 **** 0.06
34375 H 65.54125315494923 23.171589445964912 91.00487335296772 H 0.0 **** 0.06
34376 C 133.1203016712974 14.761531275483321 91.444557379145 C 0.0 **** -0.24
34377 H 134.0535852883574 14.923534088065878 91.98451451307213 H 0.0 **** 0.06
34378 H 132.8322463907685 15.681771106911071 90.93495874704963 H 0.0 **** 0.06
34379 H 132.33820891787497 14.473904840698992 92.14730261170232 H 0.0 **** 0.06
34380 H 133.25860942215914 13.967882986221923 90.71004647156046 H 0.0 **** 0.06
34381 C 71.0283242540746 20.09870134400677 44.31519610982838 C 0.0 **** -0.24
34382 H 70.03971832998458 19.877735358258008 44.718399884999485 H 0.0 **** 0.06
34383 H 71.03095018497093 19.917277863969048 43.24037308970975 H 0.0 **** 0.06
34384 H 71.7668585651071 19.4552979811657 44.79469286021708 H 0.0 **** 0.06
34385 H 71.27482201451204 21.141747957008818 44.50891867458773 H 0.0 **** 0.06
34386 C 13.98952748965823 93.07553478264484 141.08189894385094 C 0.0 **** -0.24
34387 H 14.20233357960737 92.15229872182253 140.54152341849172 H 0.0 **** 0.06
34388 H 14.368472929272485 92.99463183540708 142.10099706950496 H 0.0 **** 0.06
34389 H 12.913263397306167 93.2419262599096 141.10580105020256 H 0.0 **** 0.06
34390 H 14.475917406177786 93.91058143526685 140.57884846665112 H 0.0 **** 0.06
34391 C 98.93103507786357 139.07293571147295 19.17355562474902 C 0.0 **** -0.24
34392 H 98.86878386215638 138.99198363274715 20.258512038517793 H 0.0 **** 0.06
34393 H 98.55688541438775 140.04748178240231 18.859942996744337 H 0.0 **** 0.06
34394 H 98.32920570274334 138.2879327899095 18.715296170824296 H 0.0 **** 0.06
34395 H 99.96996271303622 138.963642019954 18.860612811480692 H 0.0 **** 0.06
34396 C 46.8029406281868 75.89666953213752 127.55089323935182 C 0.0 **** -0.24
34397 H 47.306982242864905 76.78056871446519 127.94042261877367 H 0.0 **** 0.06
34398 H 46.24089182403358 75.41623908798174 128.35235981281102 H 0.0 **** 0.06
34399 H 47.541835303897074 75.20014211420998 127.1565456183232 H 0.0 **** 0.06
34400 H 46.11931641479063 76.19093621700752 126.75401810091341 H 0.0 **** 0.06
34401 C 133.85411355366398 132.99008437557825 82.25320649010229 C 0.0 **** -0.24
34402 H 133.18937430630865 133.6163745609374 82.84850830483536 H 0.0 **** 0.06
34403 H 133.69598610863156 131.94361565405333 82.51438043906731 H 0.0 **** 0.06
34404 H 134.88912480889374 133.26465774075965 82.45591329509551 H 0.0 **** 0.06
34405 H 133.6398584862607 133.13640610330066 81.19420429698586 H 0.0 **** 0.06
34406 C 141.30990443316898 78.19638281648437 58.06766577224444 C 0.0 **** -0.24
34407 H 141.2248308311616 79.22927856255868 58.40576600946602 H 0.0 **** 0.06
34408 H 140.68800632894633 77.55693258761906 58.69510110976576 H 0.0 **** 0.06
34409 H 142.3486064934803 77.87610777944897 58.13789221349985 H 0.0 **** 0.06
34410 H 140.97609162956942 78.12537180694747 57.0319257496525 H 0.0 **** 0.06
34411 C 80.53730413611311 127.27874663245711 115.38341465306895 C 0.0 **** -0.24
34412 H 80.44706063781746 126.32229889073693 114.86700610276777 H 0.0 **** 0.06
34413 H 80.85260628036508 128.04459602960753 114.67587095285224 H 0.0 **** 0.06
34414 H 81.2763328574083 127.19243363366098 116.17988405378851 H 0.0 **** 0.06
34415 H 79.573419915508 127.55287314007211 115.81134891258871 H 0.0 **** 0.06
34416 C 85.47725853248852 93.20429988298513 3.2348733921924975 C 0.0 **** -0.24
34417 H 85.13477881761946 93.88113414745014 4.0177251830144485 H 0.0 **** 0.06
34418 H 85.7413715011428 92.24268342500466 3.6772138859186327 H 0.0 **** 0.06
34419 H 86.35130958664314 93.6306227067295 2.7434861103793082 H 0.0 **** 0.06
34420 H 84.68135092898933 93.06210417925762 2.503810900580703 H 0.0 **** 0.06
34421 C 77.34708293895795 112.38523288749214 70.05288028723243 C 0.0 **** -0.24
34422 H 77.39919243723386 111.41353780049612 70.544777825393 H 0.0 **** 0.06
34423 H 77.72312826081026 112.29655116988725 69.03406365574958 H 0.0 **** 0.06
34424 H 77.9524375319142 113.1037772900486 70.60406227847909 H 0.0 **** 0.06
34425 H 76.31101024861925 112.72454956019318 70.03064259502219 H 0.0 **** 0.06
34426 C 13.165291513901991 115.91797441132802 69.57956992014802 C 0.0 **** -0.24
34427 H 12.924397640096771 116.86975040322274 69.10551346508207 H 0.0 **** 0.06
34428 H 12.24838150800295 115.34960821186523 69.73827668724964 H 0.0 **** 0.06
34429 H 13.649061124424321 116.10157374732604 70.53898440264607 H 0.0 **** 0.06
34430 H 13.837143687421928 115.35145063301074 68.93544933852061 H 0.0 **** 0.06
34431 C 23.46327028398037 45.80532778551553 27.06731339832544 C 0.0 **** -0.24
34432 H 23.18805599351289 45.13193697975662 27.8797713142595 H 0.0 **** 0.06
34433 H 23.600672607424222 45.23196130712495 26.15081061180129 H 0.0 **** 0.06
34434 H 24.39167919385794 46.31724569681491 27.319160207317054 H 0.0 **** 0.06
34435 H 22.670594729225115 46.53952195302951 26.92157627850571 H 0.0 **** 0.06
34436 C 115.96070846175792 76.37308688545184 8.678997927121884 C 0.0 **** -0.24
34437 H 115.45216285975357 75.54875558418152 9.178112278625235 H 0.0 **** 0.06
34438 H 117.01928849451394 76.13610090778158 8.571234906482061 H 0.0 **** 0.06
34439 H 115.84958159230627 77.28011345143588 9.272040475895324 H 0.0 **** 0.06
34440 H 115.52111639011736 76.5272601923441 7.6933720780149315 H 0.0 **** 0.06
34441 C 38.15116231012544 84.74184134338307 142.52830614118778 C 0.0 **** -0.24
34442 H 38.65887536337816 83.83479708788343 142.85615224138417 H 0.0 **** 0.06
34443 H 38.61841696387536 85.60850841464102 142.99564987068223 H 0.0 **** 0.06
34444 H 37.101219042485646 84.69457190423189 142.81783273076346 H 0.0 **** 0.06
34445 H 38.22552393975654 84.82838919333754 141.44477964490068 H 0.0 **** 0.06
34446 C 4.110348688653204 1.7582811087154369 144.75686539873584 C 0.0 **** -0.24
34447 H 4.2527511360666495 1.9269740935250468 145.8240317838177 H 0.0 **** 0.06
34448 H 4.989938235793602 1.2595933893119309 144.34872115893808 H 0.0 **** 0.06
34449 H 3.967524107562582 2.71441128524404 144.25432974991278 H 0.0 **** 0.06
34450 H 3.2328956633234327 1.1311528650630578 144.60181955496336 H 0.0 **** 0.06
34451 C 58.17446972870178 90.83585280410676 22.4507421864259 C 0.0 **** -0.24
34452 H 57.674351629034874 91.60525988997256 23.039809723186465 H 0.0 **** 0.06
34453 H 58.516153459575605 91.265011681994 21.50811349923154 H 0.0 **** 0.06
34454 H 57.47763537113403 90.02334763964035 22.248358711119415 H 0.0 **** 0.06
34455 H 59.02991878623206 90.4514667621892 23.007090296329615 H 0.0 **** 0.06
34456 C 113.57929837060827 120.19574342326436 103.32105747606568 C 0.0 **** -0.24
34457 H 113.147382061974 120.71850729441084 102.46857165995624 H 0.0 **** 0.06
34458 H 113.36784771638291 119.1289657776334 103.2388502234545 H 0.0 **** 0.06
34459 H 113.14450255981829 120.58268110207538 104.24271236647712 H 0.0 **** 0.06
34460 H 114.65825979907324 120.352330198148 103.33515527837159 H 0.0 **** 0.06
34461 C 6.7418819963203305 93.70825760948507 86.23790830709626 C 0.0 **** -0.24
34462 H 6.0648449619286 93.01421136038257 85.74044018687721 H 0.0 **** 0.06
34463 H 7.734116061350335 93.26131470663705 86.30804778539547 H 0.0 **** 0.06
34464 H 6.369701380732579 93.92481470158063 87.23982125819315 H 0.0 **** 0.06
34465 H 6.800085950307846 94.63316271180751 85.66385973815427 H 0.0 **** 0.06
34466 C 111.51051137621498 107.24321051931527 41.13480103403298 C 0.0 **** -0.24
34467 H 110.99413987999692 106.29213902978232 41.001514002451 H 0.0 **** 0.06
34468 H 111.1950388667227 107.69950593220189 42.07398289188369 H 0.0 **** 0.06
34469 H 111.26578145740596 107.90908142744364 40.306791293265775 H 0.0 **** 0.06
34470 H 112.58708530073427 107.07211568783312 41.15691594853127 H 0.0 **** 0.06
34471 C 66.9160440242548 32.38056038899808 28.96585490650041 C 0.0 **** -0.24
34472 H 65.95781481221199 32.617049532125634 28.50151598893256 H 0.0 **** 0.06
34473 H 66.8891400395101 32.66742244695422 30.01784554402014 H 0.0 **** 0.06
34474 H 67.71003579977024 32.92839572012787 28.460168910512053 H 0.0 **** 0.06
34475 H 67.10365310730124 31.309773570764122 28.8850568412805 H 0.0 **** 0.06
34476 C 53.23711925065942 65.72403102460007 85.21931790929285 C 0.0 **** -0.24
34477 H 52.80421770607572 66.21530822316555 86.09130065415935 H 0.0 **** 0.06
34478 H 54.06446895268675 66.32449816036765 84.83907633669907 H 0.0 **** 0.06
34479 H 52.475869256880856 65.62185115765678 84.44575108676712 H 0.0 **** 0.06
34480 H 53.602608637471064 64.73754478570478 85.50248615160969 H 0.0 **** 0.06
34481 C 93.57469073085858 46.97602773843562 125.66234588486778 C 0.0 **** -0.24
34482 H 92.79242243385463 47.19803749798052 126.38905210363087 H 0.0 **** 0.06
34483 H 94.03939037352305 47.90576784067224 125.33465935015124 H 0.0 **** 0.06
34484 H 93.13821619182394 46.46414480560253 124.80382634446644 H 0.0 **** 0.06
34485 H 94.32653758920732 46.33536313162824 126.12258064569465 H 0.0 **** 0.06
34486 C 22.805969254802704 94.23899612222972 59.456562233604004 C 0.0 **** -0.24
34487 H 23.892446008098702 94.17632319078771 59.507955000811435 H 0.0 **** 0.06
34488 H 22.491375688605643 94.24330409518637 58.412705323522346 H 0.0 **** 0.06
34489 H 22.47132160717821 95.1559104486503 59.9411692319955 H 0.0 **** 0.06
34490 H 22.367453910542984 93.37935217878 59.96482451411423 H 0.0 **** 0.06
34491 C 123.24918014876712 118.05191888372302 96.76094536952975 C 0.0 **** -0.24
34492 H 122.30452387276154 118.0731556607157 96.21680067219104 H 0.0 **** 0.06
34493 H 123.7938410432331 118.97823468230074 96.57875470192613 H 0.0 **** 0.06
34494 H 123.84586481320815 117.20655007905201 96.4187467755935 H 0.0 **** 0.06
34495 H 123.05189400206405 117.94929636196228 97.82827461323562 H 0.0 **** 0.06
34496 C 41.02124429665456 112.81245927224896 134.9380331951977 C 0.0 **** -0.24
34497 H 40.9797669812734 112.07391476414963 135.7385877131789 H 0.0 **** 0.06
34498 H 40.09046291385843 113.37905653004546 134.91845139754065 H 0.0 **** 0.06
34499 H 41.15983202846898 112.30552406777346 133.98339084826378 H 0.0 **** 0.06
34500 H 41.857005422193964 113.49130913103446 135.11385469663094 H 0.0 **** 0.06
34501 C 34.864273565283014 39.550927871848785 5.432665444114718 C 0.0 **** -0.24
34502 H 33.94901032332916 39.75508894832909 5.988883367441986 H 0.0 **** 0.06
34503 H 35.39469588157458 38.719193687638665 5.898951211236863 H 0.0 **** 0.06
34504 H 35.49916142087898 40.43699325833295 5.441408754534109 H 0.0 **** 0.06
34505 H 34.61394623817307 39.29187726357381 4.403786967609733 H 0.0 **** 0.06
34506 C 130.41155906250634 119.45183336963946 114.52624826037034 C 0.0 **** -0.24
34507 H 129.69924226745286 119.15286855131673 115.29547757221341 H 0.0 **** 0.06
34508 H 129.98126412257864 120.25256820495356 113.92456155141814 H 0.0 **** 0.06
34509 H 130.63665182239305 118.59753146027914 113.88870348255749 H 0.0 **** 0.06
34510 H 131.32822327057187 119.80408983701444 114.99911293551686 H 0.0 **** 0.06
34511 C 27.646585450462567 62.16496043364634 25.04523432214657 C 0.0 **** -0.24
34512 H 26.589720404605032 62.423115140710024 25.103819918311302 H 0.0 **** 0.06
34513 H 27.820905926287296 61.53975073526465 24.169365544820238 H 0.0 **** 0.06
34514 H 27.93742505299764 61.62079379669706 25.943648415065155 H 0.0 **** 0.06
34515 H 28.239310431407517 63.07677136824924 24.96488595621878 H 0.0 **** 0.06
34516 C 90.09186907449322 133.28558949675872 91.00760525846009 C 0.0 **** -0.24
34517 H 90.26222947119862 133.79170669231016 90.05792922392168 H 0.0 **** 0.06
34518 H 90.7740302275455 133.68540178012125 91.75918511551761 H 0.0 **** 0.06
34519 H 90.26971075691523 132.21729813078568 90.88662276398607 H 0.0 **** 0.06
34520 H 89.0619825064611 133.4490727738647 91.32740181830076 H 0.0 **** 0.06
34521 C 115.16126077429894 54.66039479573985 113.49542831380101 C 0.0 **** -0.24
34522 H 116.08900552132721 55.11270103764505 113.14503047861818 H 0.0 **** 0.06
34523 H 114.45620043208604 55.444786865749734 113.77335448607015 H 0.0 **** 0.06
34524 H 115.36791470012659 54.03414942950721 114.36330664203375 H 0.0 **** 0.06
34525 H 114.73110731489405 54.05067855256334 112.70091211009488 H 0.0 **** 0.06
34526 C 41.73346756240447 99.79287975821838 73.11223338280568 C 0.0 **** -0.24
34527 H 42.22045565039551 100.65857530759205 73.56237976244448 H 0.0 **** 0.06
34528 H 40.78115128585989 99.61249474376 73.61261716334765 H 0.0 **** 0.06
34529 H 42.37367952278578 98.91798693458927 73.22287724970126 H 0.0 **** 0.06
34530 H 41.55803279707651 99.9844546197062 72.05365291320997 H 0.0 **** 0.06
34531 C 9.643172563548518 133.44109608885384 14.603126434260219 C 0.0 **** -0.24
34532 H 9.97493069180615 132.664572482676 13.914189926579809 H 0.0 **** 0.06
34533 H 8.895697727516193 134.06586559247887 14.113672293494574 H 0.0 **** 0.06
34534 H 10.495330332173552 134.05503761060982 14.895982840775503 H 0.0 **** 0.06
34535 H 9.20780593301518 132.97830373601346 15.489353310403203 H 0.0 **** 0.06
34536 C 28.612292174201365 48.6164632390126 2.2644424788485082 C 0.0 **** -0.24
34537 H 29.053710432925477 47.641489628697855 2.056576417141514 H 0.0 **** 0.06
34538 H 28.853713929947467 48.91443017134293 3.284230737739506 H 0.0 **** 0.06
34539 H 27.52966584841122 48.55540985012561 2.1505405540405604 H 0.0 **** 0.06
34540 H 29.010400925857248 49.35183994413808 1.5654293097931031 H 0.0 **** 0.06
34541 C 64.13360811609667 3.736506163641046 58.02602704743862 C 0.0 **** -0.24
34542 H 64.36944523348205 4.6559782772490514 58.56154340639267 H 0.0 **** 0.06
34543 H 64.14948615217469 3.927826536662259 56.9521893588625 H 0.0 **** 0.06
34544 H 63.14232467618126 3.3901837528649494 58.3184493885031 H 0.0 **** 0.06
34545 H 64.8720052248155 2.9727202472123118 58.27084881751978 H 0.0 **** 0.06
34546 C 104.56920754963764 74.40470851090555 30.682600113862577 C 0.0 **** -0.24
34547 H 104.30525903727715 75.36396053341103 31.127397391309188 H 0.0 **** 0.06
34548 H 103.66947325342655 73.7995246879801 30.565076934448 H 0.0 **** 0.06
34549 H 105.27480164068395 73.8854369584967 31.331254056082173 H 0.0 **** 0.06
34550 H 105.02557676106834 74.56975885266219 29.70681355664246 H 0.0 **** 0.06
34551 C 95.95589040568801 125.73000849969127 137.255121513206 C 0.0 **** -0.24
34552 H 96.3244835758638 126.70210993080791 137.5831029037655 H 0.0 **** 0.06
34553 H 95.35361686939869 125.85500653358433 136.35514930007338 H 0.0 **** 0.06
34554 H 95.34652351145328 125.28861259693525 138.0430406032243 H 0.0 **** 0.06
34555 H 96.80099593124233 125.07643581949678 137.03872072155127 H 0.0 **** 0.06
34556 C 72.51999292053634 112.74383180699347 31.97973107073915 C 0.0 **** -0.24
34557 H 71.68352264857047 112.72962600838368 32.67819621654604 H 0.0 **** 0.06
34558 H 73.07881255813507 111.81227886903748 32.064304083143156 H 0.0 **** 0.06
34559 H 73.17536275349563 113.58302620383323 32.21513941721531 H 0.0 **** 0.06
34560 H 72.14299536455633 112.85102497880247 30.963040691582876 H 0.0 **** 0.06
34561 C 28.367769056959176 61.3705781067566 107.29612182498364 C 0.0 **** -0.24
34562 H 27.454087193351654 61.439429599309506 106.70511771943792 H 0.0 **** 0.06
34563 H 29.14052862269469 60.870371401693404 106.71207831778956 H 0.0 **** 0.06
34564 H 28.170521245369954 60.80119704400036 108.20420738590722 H 0.0 **** 0.06
34565 H 28.703779533158894 62.37303177603283 107.56124349029302 H 0.0 **** 0.06
34566 C 77.73800073825522 22.720540450286137 2.4585425908468146 C 0.0 **** -0.24
34567 H 77.07138741229397 22.877839927818684 1.6107799872738262 H 0.0 **** 0.06
34568 H 78.7209283363318 23.131252770340154 2.227636494019226 H 0.0 **** 0.06
34569 H 77.82818340716933 21.65233151139779 2.6571720694094374 H 0.0 **** 0.06
34570 H 77.33288348656069 23.220664956401095 3.3382797053653626 H 0.0 **** 0.06
34571 C 124.34968090352534 15.680607147266073 39.1373056786481 C 0.0 **** -0.24
34572 H 124.32355152571152 16.32007853032229 38.255020294375704 H 0.0 **** 0.06
34573 H 125.15408989007969 16.00577892303795 39.797810362648036 H 0.0 **** 0.06
34574 H 124.52493626003019 14.649042777691136 38.83317515676709 H 0.0 **** 0.06
34575 H 123.39731985148191 15.748209906038852 39.66361377288053 H 0.0 **** 0.06
34576 C 144.7513161085297 97.09252705288148 104.11150446630384 C 0.0 **** -0.24
34577 H 145.6128916123195 96.44427983747372 104.27418554911164 H 0.0 **** 0.06
34578 H 144.09184047309262 96.6408220388088 103.37030113873261 H 0.0 **** 0.06
34579 H 145.09041102990108 98.06386935081886 103.75267214639305 H 0.0 **** 0.06
34580 H 144.21090730874465 97.2206481063578 105.0499282855855 H 0.0 **** 0.06
34581 C 86.02546573314278 25.75455960384673 64.59007444161819 C 0.0 **** -0.24
34582 H 86.50127163720005 24.817951069581795 64.30045561354376 H 0.0 **** 0.06
34583 H 86.78907902750335 26.51498551902492 64.75126075324806 H 0.0 **** 0.06
34584 H 85.46069012864814 25.60513203537772 65.51033517541032 H 0.0 **** 0.06
34585 H 85.35030273900752 26.078238467558492 63.798265880237466 H 0.0 **** 0.06
34586 C 36.11212338373042 104.14773527754346 105.48660661773069 C 0.0 **** -0.24
34587 H 35.841802299455715 104.59068225995051 104.52765697792263 H 0.0 **** 0.06
34588 H 35.96943789443229 104.8841264686668 106.2786507090306 H 0.0 **** 0.06
34589 H 37.15593739854197 103.83787831948354 105.4615710283819 H 0.0 **** 0.06
34590 H 35.4792682288357 103.28083031961478 105.67676720022187 H 0.0 **** 0.06
34591 C 97.90770796065225 109.91207787700634 72.05059019069837 C 0.0 **** -0.24
34592 H 98.00034194420606 108.90315310676269 71.6489527456112 H 0.0 **** 0.06
34593 H 97.24712085955385 109.89898176245933 72.91788604466747 H 0.0 **** 0.06
34594 H 97.49359982699421 110.57066600003716 71.28696852735433 H 0.0 **** 0.06
34595 H 98.89195672514202 110.27529254496679 72.34814425190143 H 0.0 **** 0.06
34596 C 95.76284820468342 66.04286319124671 62.09721485866055 C 0.0 **** -0.24
34597 H 96.26184525733015 65.23412883729569 61.56276971845938 H 0.0 **** 0.06
34598 H 95.25421647564811 66.69099954796351 61.382543614922554 H 0.0 **** 0.06
34599 H 96.50276372552992 66.62174511389716 62.65036461938263 H 0.0 **** 0.06
34600 H 95.03467799856814 65.62451410268372 62.79244583389084 H 0.0 **** 0.06
34601 C 62.41444726072538 73.14350921635695 116.59218219881073 C 0.0 **** -0.24
34602 H 61.943687978748216 72.29018398875357 116.10366642125122 H 0.0 **** 0.06
34603 H 62.588032321927926 72.90983623097225 117.64231315872594 H 0.0 **** 0.06
34604 H 61.75967411235868 74.0115398052529 116.5149039962023 H 0.0 **** 0.06
34605 H 63.364901893022676 73.36148236968589 116.10544039937072 H 0.0 **** 0.06
34606 C 99.80153036422328 116.31247331800014 103.54474160718023 C 0.0 **** -0.24
34607 H 99.96609722976963 115.90971487383061 102.54465994144537 H 0.0 **** 0.06
34608 H 100.36046688190477 115.7201002697083 104.2703572857051 H 0.0 **** 0.06
34609 H 98.73882836529678 116.2719409137022 103.78266272751293 H 0.0 **** 0.06
34610 H 100.14295035167594 117.34651024087358 103.58009531636742 H 0.0 **** 0.06
34611 C 68.72083739570718 21.278898717660525 142.94758511496272 C 0.0 **** -0.24
34612 H 68.17717348424014 20.36398184455234 143.18475298290073 H 0.0 **** 0.06
34613 H 68.60409459993559 21.505221567475388 141.88700506015113 H 0.0 **** 0.06
34614 H 69.77747105836264 21.14359097111253 143.17670948557313 H 0.0 **** 0.06
34615 H 68.32290670670761 22.101239160356755 143.54106064339655 H 0.0 **** 0.06
34616 C 117.60563302711464 73.07822026753219 119.92646871460447 C 0.0 **** -0.24
34617 H 117.81242069405087 72.96894100082837 118.8619863112654 H 0.0 **** 0.06
34618 H 116.6692255120818 72.57625003441713 120.1683709973773 H 0.0 **** 0.06
34619 H 117.52674818358625 74.1368755818904 120.17387325535516 H 0.0 **** 0.06
34620 H 118.41702181865688 72.63136190512915 120.5010257016912 H 0.0 **** 0.06
34621 C 30.760190713533234 117.25224832676263 68.97511778909808 C 0.0 **** -0.24
34622 H 30.32727430591254 118.09308521113105 69.51620796179341 H 0.0 **** 0.06
34623 H 31.814930014838836 117.15609803681706 69.23428773103856 H 0.0 **** 0.06
34624 H 30.663245416050202 117.42198728294385 67.90244765140548 H 0.0 **** 0.06
34625 H 30.234455087557436 116.3366277652219 69.24661355572772 H 0.0 **** 0.06
34626 C 110.10765505109234 121.60315294651276 14.200668783732652 C 0.0 **** -0.24
34627 H 110.02772984952301 122.27689022142864 13.34690769789212 H 0.0 **** 0.06
34628 H 110.46170616083796 120.62931595701669 13.862233808586808 H 0.0 **** 0.06
34629 H 109.12970016280215 121.49231269702302 14.669313191581622 H 0.0 **** 0.06
34630 H 110.81230991546622 122.01600487021663 14.923406468838088 H 0.0 **** 0.06
34631 C 81.83089492757364 122.88541407529864 115.59759233648812 C 0.0 **** -0.24
34632 H 81.67190628670839 123.94158065317293 115.38161169345933 H 0.0 **** 0.06
34633 H 82.05978578957885 122.76141783071239 116.65556008438627 H 0.0 **** 0.06
34634 H 82.66280573049957 122.51421159413808 114.99910923059194 H 0.0 **** 0.06
34635 H 80.92860367809608 122.32557278888937 115.3522168759075 H 0.0 **** 0.06
34636 C 102.50340022562077 141.397364753001 126.50308546972823 C 0.0 **** -0.24
34637 H 101.4942688646488 141.02854347975978 126.31792962888451 H 0.0 **** 0.06
34638 H 103.11051309609442 141.2602640117184 125.60768483853829 H 0.0 **** 0.06
34639 H 102.94575734339696 140.844122590719 127.33112481434134 H 0.0 **** 0.06
34640 H 102.46220707546246 142.45683125126902 126.75518018021936 H 0.0 **** 0.06
34641 C 64.77140373681681 100.22004735879203 114.11120470019306 C 0.0 **** -0.24
34642 H 64.17015678530946 100.20035542679821 113.20194992259475 H 0.0 **** 0.06
34643 H 65.10531855316393 99.20954329917907 114.34688316750437 H 0.0 **** 0.06
34644 H 64.17018195066716 100.60594027798805 114.9351828360834 H 0.0 **** 0.06
34645 H 65.637726606848 100.86432767746182 113.96065417735251 H 0.0 **** 0.06
34646 C 141.3544564788124 32.42614661941613 136.274805561608 C 0.0 **** -0.24
34647 H 140.82114080693486 31.849247820208404 135.51900394593324 H 0.0 **** 0.06
34648 H 140.73062667607138 33.25780450037695 136.60305312500617 H 0.0 **** 0.06
34649 H 142.28086027197185 32.81315381984484 135.84975572937998 H 0.0 **** 0.06
34650 H 141.58420807793266 31.78563344957152 137.125844305594 H 0.0 **** 0.06
34651 C 3.7244688461080386 72.97050088047233 133.24014101825838 C 0.0 **** -0.24
34652 H 2.7763691051012245 73.4579739818795 133.01519055642956 H 0.0 **** 0.06
34653 H 3.8303721948906855 72.07822765660546 132.62271256718998 H 0.0 **** 0.06
34654 H 3.7466234820917066 72.68800739248886 134.29319730670406 H 0.0 **** 0.06
34655 H 4.54409557582548 73.6575088871288 133.03078510811832 H 0.0 **** 0.06
34656 C 94.16198933305131 132.8101421278089 63.87257519781076 C 0.0 **** -0.24
34657 H 93.2169106015641 132.3213825567011 64.1091067288906 H 0.0 **** 0.06
34658 H 94.02037296815945 133.48442543295283 63.02741736317421 H 0.0 **** 0.06
34659 H 94.9057334577591 132.05579817964576 63.61421920745221 H 0.0 **** 0.06
34660 H 94.5046478755374 133.37759632893972 64.73781143557676 H 0.0 **** 0.06
34661 C 88.70440271326876 69.81356935488932 132.0690297701918 C 0.0 **** -0.24
34662 H 89.21147431489064 70.7752764099863 132.14889740816756 H 0.0 **** 0.06
34663 H 87.66590484445098 69.92391544189636 132.38142026310365 H 0.0 **** 0.06
34664 H 89.20268430406594 69.0863328724187 132.7102999656645 H 0.0 **** 0.06
34665 H 88.73799688654307 69.47083152035256 131.03428624801646 H 0.0 **** 0.06
34666 C 78.32301261765053 122.92135505146743 127.0431004121073 C 0.0 **** -0.24
34667 H 78.81772245535277 123.68245035310517 127.64591794979064 H 0.0 **** 0.06
34668 H 78.84566739800914 122.81557416623659 126.09183844411714 H 0.0 **** 0.06
34669 H 77.28993459015938 123.21771994298362 126.85919671017481 H 0.0 **** 0.06
34670 H 78.33876455267247 121.96952575363886 127.57372339222182 H 0.0 **** 0.06
34671 C 33.33154269137384 78.51914257087097 110.53419085496256 C 0.0 **** -0.24
34672 H 33.60942602509428 79.56147689081462 110.37566973462037 H 0.0 **** 0.06
34673 H 33.087393139968526 78.36481273142792 111.58563996529205 H 0.0 **** 0.06
34674 H 34.165635255690034 77.8750993937222 110.2564322243731 H 0.0 **** 0.06
34675 H 32.464615292258486 78.27717051446606 109.92013282451728 H 0.0 **** 0.06
34676 C 70.76181460813513 17.452074745268476 78.67273553162366 C 0.0 **** -0.24
34677 H 71.77229571500646 17.30351947964604 78.29262352007595 H 0.0 **** 0.06
34678 H 70.39801305374999 16.52257333341163 79.11183517387238 H 0.0 **** 0.06
34679 H 70.10587906134566 17.74888331803119 77.85458022269532 H 0.0 **** 0.06
34680 H 70.77145009918974 18.233592428403753 79.43278828237604 H 0.0 **** 0.06
34681 C 71.23922701995849 55.959793629166995 104.60750670395574 C 0.0 **** -0.24
34682 H 71.60156200669525 56.14441468381216 103.5953829997282 H 0.0 **** 0.06
34683 H 71.20812685362739 54.88560504046558 104.79107296260149 H 0.0 **** 0.06
34684 H 70.23775065941146 56.376598893684104 104.71594738796784 H 0.0 **** 0.06
34685 H 71.9096710390175 56.433200730729084 105.32453418878656 H 0.0 **** 0.06
34686 C 27.950448915172885 135.97008504180977 130.1106058745652 C 0.0 **** -0.24
34687 H 28.550175426632542 135.6169593481011 130.95017558716472 H 0.0 **** 0.06
34688 H 27.097871142954453 135.3060750759171 129.96820221300572 H 0.0 **** 0.06
34689 H 28.5604836917255 135.97641549287792 129.2067085121841 H 0.0 **** 0.06
34690 H 27.59609858033803 136.9799054124914 130.3173969621442 H 0.0 **** 0.06
34691 C 29.65650103432946 74.73477474399365 97.61241092041172 C 0.0 **** -0.24
34692 H 28.605605527720876 74.93046276626754 97.3990152002578 H 0.0 **** 0.06
34693 H 30.267900929597253 75.0891071520533 96.78275280332616 H 0.0 **** 0.06
34694 H 29.80679372671831 73.66301955620932 97.74161546151663 H 0.0 **** 0.06
34695 H 29.945349759376583 75.25417139850137 98.52562140249103 H 0.0 **** 0.06
34696 C 79.03569158452939 14.355440397142331 36.386149044049034 C 0.0 **** -0.24
34697 H 79.41362576384813 13.42277188974353 35.96535434255486 H 0.0 **** 0.06
34698 H 78.60407947499101 14.162174125930704 37.36856090323545 H 0.0 **** 0.06
34699 H 78.27062255984788 14.766368057442605 35.72766462629647 H 0.0 **** 0.06
34700 H 79.85435206308051 15.067515838178537 36.48238528640749 H 0.0 **** 0.06
34701 C 124.29265127982029 32.73399187400745 73.6423641698957 C 0.0 **** -0.24
34702 H 124.4318288193457 32.98379280029707 74.69430096296043 H 0.0 **** 0.06
34703 H 123.36786468481972 32.16725003065585 73.52384650591614 H 0.0 **** 0.06
34704 H 125.13429155003979 32.134709653789756 73.29668610587032 H 0.0 **** 0.06
34705 H 124.23360162151914 33.65141117495637 73.05648289044677 H 0.0 **** 0.06
34706 C 142.45756330936985 139.69860935418149 66.0848198365039 C 0.0 **** -0.24
34707 H 141.94902584085986 138.9873352327807 65.43341543340179 H 0.0 **** 0.06
34708 H 143.47727642005339 139.35814520956592 66.26843435989272 H 0.0 **** 0.06
34709 H 141.92233825262838 139.77119157532678 67.03063999802231 H 0.0 **** 0.06
34710 H 142.48249796204146 140.67706702601993 65.60547473164874 H 0.0 **** 0.06
34711 C 81.44440532442451 143.7098002701348 80.56470539789416 C 0.0 **** -0.24
34712 H 82.20116434527637 143.71833662229 81.34887999154466 H 0.0 **** 0.06
34713 H 80.66910855796513 142.98549045866292 80.81557616360834 H 0.0 **** 0.06
34714 H 81.90670668703922 143.43470737408677 79.61729302914745 H 0.0 **** 0.06
34715 H 81.00056611868598 144.70171464936357 80.47801899044134 H 0.0 **** 0.06
34716 C 100.5299906602365 100.78504517697871 101.05537726003172 C 0.0 **** -0.24
34717 H 100.43626367261831 100.93230780039028 102.13084823805275 H 0.0 **** 0.06
34718 H 100.017189897116 99.86700928025863 100.76813455235616 H 0.0 **** 0.06
34719 H 101.5847378939645 100.71131666976291 100.7898093930998 H 0.0 **** 0.06
34720 H 100.08279105940139 101.63094638911241 100.53275638645796 H 0.0 **** 0.06
34721 C 25.70312452425361 105.01718922511274 117.03355578352146 C 0.0 **** -0.24
34722 H 26.405043206507344 104.19279138272091 116.90801990637966 H 0.0 **** 0.06
34723 H 24.81425006759366 104.66064035186173 117.5552616915498 H 0.0 **** 0.06
34724 H 25.419412823099208 105.40400190755652 116.05420366821828 H 0.0 **** 0.06
34725 H 26.172513266797807 105.80996783087893 117.6155017948186 H 0.0 **** 0.06
34726 C 51.13190900250953 76.29575472985215 112.07368492687647 C 0.0 **** -0.24
34727 H 51.46180040303574 77.28204610944647 112.39858157739849 H 0.0 **** 0.06
34728 H 50.133643948887425 76.370408080755 111.6428396643472 H 0.0 **** 0.06
34729 H 51.11027417570199 75.62020624516103 112.92890307517683 H 0.0 **** 0.06
34730 H 51.823928192519475 75.91085577900614 111.32357279874856 H 0.0 **** 0.06
34731 C 19.92718365368618 2.419563990221551 105.81813281610084 C 0.0 **** -0.24
34732 H 19.485461651366705 3.4011264131542127 105.98891854040096 H 0.0 **** 0.06
34733 H 19.93442232826807 1.8566174004106877 106.75214175012167 H 0.0 **** 0.06
34734 H 20.94932460991143 2.5387308496458196 105.45746529162625 H 0.0 **** 0.06
34735 H 19.340152176981746 1.8812359691238747 105.07344837228942 H 0.0 **** 0.06
34736 C 22.23945905434735 11.110896387030323 50.37305942298906 C 0.0 **** -0.24
34737 H 21.799059505157317 12.093165796471737 50.54455562041744 H 0.0 **** 0.06
34738 H 21.4463933786613 10.375528217161246 50.242459548282 H 0.0 **** 0.06
34739 H 22.854855663300583 10.83484147200403 51.229518183695376 H 0.0 **** 0.06
34740 H 22.85849490005208 11.142661588415052 49.47619906000514 H 0.0 **** 0.06
34741 C 140.9197456193493 103.59999942842055 89.35773027994921 C 0.0 **** -0.24
34742 H 141.86631084343398 103.24470806074152 88.95183969451634 H 0.0 **** 0.06
34743 H 140.17695037917977 103.6461338808763 88.56109437983318 H 0.0 **** 0.06
34744 H 141.0579299544684 104.59414856693584 89.78368040552098 H 0.0 **** 0.06
34745 H 140.57816047233226 102.91669479884246 90.13418066165778 H 0.0 **** 0.06
34746 C 116.66165781861574 31.870008458315 90.21848312967667 C 0.0 **** -0.24
34747 H 115.86969120619145 31.323040554860455 90.73053382513834 H 0.0 **** 0.06
34748 H 116.42315176605516 32.934317493429035 90.21337379069898 H 0.0 **** 0.06
34749 H 116.7464146482827 31.510800222291067 89.19266850840096 H 0.0 **** 0.06
34750 H 117.6065358884891 31.71159822778361 90.73846152874953 H 0.0 **** 0.06
34751 C 40.49076423181964 75.80550583697405 18.481963809009102 C 0.0 **** -0.24
34752 H 41.474566452651715 75.34848152841195 18.374983102282897 H 0.0 **** 0.06
34753 H 40.05255859500531 75.95840767119559 17.49603596317806 H 0.0 **** 0.06
34754 H 40.589333165671235 76.76463221788642 18.98955578255479 H 0.0 **** 0.06
34755 H 39.8473235713852 75.14866709374473 19.068333086718553 H 0.0 **** 0.06
34756 C 50.31573059010006 87.36308560462943 128.27519136600944 C 0.0 **** -0.24
34757 H 49.45846317167374 87.53235234819483 127.62359621511209 H 0.0 **** 0.06
34758 H 50.14249650267348 87.84639833820523 129.23611779397012 H 0.0 **** 0.06
34759 H 51.21052071749776 87.78094098614886 127.81317574825052 H 0.0 **** 0.06
34760 H 50.45059955157423 86.29196746337102 128.42507859182348 H 0.0 **** 0.06
34761 C 126.69588196946003 75.35065113244883 45.06953445156802 C 0.0 **** -0.24
34762 H 125.82003012033935 74.75107927480462 45.320411085033214 H 0.0 **** 0.06
34763 H 126.4914337855927 75.93130390070141 44.16929711883964 H 0.0 **** 0.06
34764 H 127.54705161735177 74.6935854735556 44.893512271696096 H 0.0 **** 0.06
34765 H 126.92187727334348 76.02560570388576 45.894584942446755 H 0.0 **** 0.06
34766 C 71.7649658353145 131.28461684298279 10.062841893349969 C 0.0 **** -0.24
34767 H 71.74275298257601 130.9974747948817 9.01158268208701 H 0.0 **** 0.06
34768 H 71.30991331358106 130.4963685167225 10.663908232732865 H 0.0 **** 0.06
34769 H 71.20795739646732 132.21210824202115 10.19831968847518 H 0.0 **** 0.06
34770 H 72.79736018480132 131.4318331624079 10.377514882623643 H 0.0 **** 0.06
34771 C 38.33807490813541 82.4887356727669 38.04928514594491 C 0.0 **** -0.24
34772 H 37.50765362751821 82.26592373837138 38.71912484876907 H 0.0 **** 0.06
34773 H 38.00029688831938 82.41589742646423 37.01510550408079 H 0.0 **** 0.06
34774 H 39.14347686633559 81.77431772036704 38.2208677472409 H 0.0 **** 0.06
34775 H 38.7002435412102 83.49842745103106 38.24415513610785 H 0.0 **** 0.06
34776 C 85.37483645095675 41.577795338487135 34.509341120245274 C 0.0 **** -0.24
34777 H 85.85298421998561 42.55615986703913 34.452424527040634 H 0.0 **** 0.06
34778 H 85.87067079862767 40.97450529055067 35.270381429988866 H 0.0 **** 0.06
34779 H 85.45063566076529 41.079374989434484 33.543502373726795 H 0.0 **** 0.06
34780 H 84.32407775086283 41.702709190930705 34.77231566816416 H 0.0 **** 0.06
34781 C 83.26417879049086 64.14622335794122 133.99344409825963 C 0.0 **** -0.24
34782 H 82.3795557258033 63.557431551507605 133.74864176002362 H 0.0 **** 0.06
34783 H 83.79271109055415 64.40626415732288 133.075436278622 H 0.0 **** 0.06
34784 H 83.92148210370163 63.562551342432954 134.6383109448069 H 0.0 **** 0.06
34785 H 82.9627600703246 65.05650321410403 134.5107836302522 H 0.0 **** 0.06
34786 C 134.73231805530327 4.362534305831559 67.22982802839526 C 0.0 **** -0.24
34787 H 134.57529741230437 5.26640057058874 67.81876538150729 H 0.0 **** 0.06
34788 H 135.44428523269355 4.569241520871984 66.43093081880603 H 0.0 **** 0.06
34789 H 133.78431153965215 4.041805219181281 66.79804753787496 H 0.0 **** 0.06
34790 H 135.1244315130412 3.5745498619036944 67.87285092917928 H 0.0 **** 0.06
34791 C 133.00870038304208 37.35694620575512 5.638918212591932 C 0.0 **** -0.24
34792 H 131.98657806852015 37.29979529955469 6.012282128708989 H 0.0 **** 0.06
34793 H 133.16990594155078 38.32862316666362 5.170645209257145 H 0.0 **** 0.06
34794 H 133.17096476818418 36.56862138072353 4.903317661645872 H 0.0 **** 0.06
34795 H 133.705699468811 37.23159376834775 6.467072730123164 H 0.0 **** 0.06
34796 C 95.55796846395614 133.3784571930514 135.5480879982767 C 0.0 **** -0.24
34797 H 94.96033671494584 133.89507732985552 134.79745306870123 H 0.0 **** 0.06
34798 H 95.98817800375201 132.47655911247622 135.1113586199061 H 0.0 **** 0.06
34799 H 94.92404169030172 133.1073040267634 136.39272208040228 H 0.0 **** 0.06
34800 H 96.35837767050538 134.03438268140857 135.88989018609817 H 0.0 **** 0.06
34801 C 126.5995004731347 81.43128583160967 52.28943839671557 C 0.0 **** -0.24
34802 H 127.3441033805114 80.63825496575522 52.366214054519546 H 0.0 **** 0.06
34803 H 126.53251590058728 81.95840426655333 53.241535109630945 H 0.0 **** 0.06
34804 H 125.63048920950614 80.99721373132604 52.04524291677269 H 0.0 **** 0.06
34805 H 126.89263913638538 82.13106922246322 51.50719303774579 H 0.0 **** 0.06
34806 C 106.28967328594136 124.68549270613016 5.347235509792796 C 0.0 **** -0.24
34807 H 105.62219173809935 125.51062084196454 5.101972854398042 H 0.0 **** 0.06
34808 H 106.97535623257586 124.5135265399455 4.5171069273855835 H 0.0 **** 0.06
34809 H 105.70275640056205 123.78458431480331 5.525879101782635 H 0.0 **** 0.06
34810 H 106.85876120802952 124.93187604257999 6.243925036550564 H 0.0 **** 0.06
34811 C 14.472489343687641 10.676169477092117 41.614685918893684 C 0.0 **** -0.24
34812 H 14.615483245405926 11.360121607375959 40.777823836671786 H 0.0 **** 0.06
34813 H 13.787027909983692 11.123441429300215 42.33569728690867 H 0.0 **** 0.06
34814 H 15.432793215521656 10.48525260357178 42.095349196087625 H 0.0 **** 0.06
34815 H 14.055915914745356 9.7373994818945 41.25007879344997 H 0.0 **** 0.06
34816 C 109.31604201252615 122.42878200234738 106.47968886921578 C 0.0 **** -0.24
34817 H 110.31062139765238 122.04645694239444 106.25303443661576 H 0.0 **** 0.06
34818 H 108.59023933881217 121.61947313175192 106.40453903667694 H 0.0 **** 0.06
34819 H 109.05911274955058 123.21540574753024 105.76980975228568 H 0.0 **** 0.06
34820 H 109.30482884540204 122.8349399655379 107.49190176110116 H 0.0 **** 0.06
34821 C 64.6475921869753 142.1346857428777 76.93501761686312 C 0.0 **** -0.24
34822 H 65.18247642630242 143.0663265778235 77.11759656013473 H 0.0 **** 0.06
34823 H 63.614298536688025 142.35594633480707 76.66673809467142 H 0.0 **** 0.06
34824 H 64.66671257421656 141.5218258673748 77.8353831068172 H 0.0 **** 0.06
34825 H 65.1269028525562 141.59472511471384 76.11811815856524 H 0.0 **** 0.06
34826 C 47.2367125330731 137.5011923777988 62.96367183157366 C 0.0 **** -0.24
34827 H 48.16910320657661 137.39451007800162 63.51985840238406 H 0.0 **** 0.06
34828 H 47.45965454274659 137.75943862942697 61.92852274924482 H 0.0 **** 0.06
34829 H 46.63435076010444 138.29019784081063 63.41411447771053 H 0.0 **** 0.06
34830 H 46.68615837770898 136.56140511934845 62.99475062158635 H 0.0 **** 0.06
34831 C 117.5477027154709 106.61055494471456 96.9784074078323 C 0.0 **** -0.24
34832 H 117.58529530821403 105.70726543184709 97.58769368699839 H 0.0 **** 0.06
34833 H 116.80892376953642 107.29745490330022 97.39288065142424 H 0.0 **** 0.06
34834 H 117.26911829789776 106.34941448741334 95.95814311810835 H 0.0 **** 0.06
34835 H 118.52778624880932 107.08836861351794 96.97659201086168 H 0.0 **** 0.06
34836 C 121.03224810411989 35.57541408649814 6.8635964494144055 C 0.0 **** -0.24
34837 H 120.73834116359122 34.95567683977709 7.710056904167985 H 0.0 **** 0.06
34838 H 120.37144101853447 35.37501784548852 6.0198534400007055 H 0.0 **** 0.06
34839 H 122.05996487320151 35.34320493166781 6.5833839033823445 H 0.0 **** 0.06
34840 H 120.95985684000645 36.627412788051046 7.1395079058157584 H 0.0 **** 0.06
34841 C 98.42674679867721 43.012853339140634 76.32689248858551 C 0.0 **** -0.24
34842 H 99.08337422282656 42.152080468635276 76.44958456563157 H 0.0 **** 0.06
34843 H 98.71671594830937 43.79398836518648 77.03150087231032 H 0.0 **** 0.06
34844 H 97.39637748916155 42.71428573770447 76.52045482253365 H 0.0 **** 0.06
34845 H 98.51150977686345 43.392372743090775 75.30853834435155 H 0.0 **** 0.06
34846 C 85.88140353502055 53.238359888023155 19.342153327570998 C 0.0 **** -0.24
34847 H 85.16539062674761 52.92380061216943 18.583710963788462 H 0.0 **** 0.06
34848 H 86.34734471823597 54.175655696851464 19.035204874330816 H 0.0 **** 0.06
34849 H 86.64852200191459 52.47174797965906 19.457202851041018 H 0.0 **** 0.06
34850 H 85.36603627038042 53.38280063948454 20.2911308305774 H 0.0 **** 0.06
34851 C 12.063872796038204 65.78141162189598 64.04442947897392 C 0.0 **** -0.24
34852 H 12.733919969068545 66.55400885911857 64.42089085696595 H 0.0 **** 0.06
34853 H 11.378770308841574 65.47675516650722 64.83655698772442 H 0.0 **** 0.06
34854 H 12.647654745706596 64.92154688156407 63.71811813000588 H 0.0 **** 0.06
34855 H 11.493679765365279 66.17409464882658 63.20162884334694 H 0.0 **** 0.06
34856 C 85.30226950020437 16.5880363319624 128.42161535179048 C 0.0 **** -0.24
34857 H 86.35058101394901 16.572252247118712 128.12464448037807 H 0.0 **** 0.06
34858 H 84.80552381934405 15.69270607243837 128.0470163964775 H 0.0 **** 0.06
34859 H 84.82066008043768 17.47191871837859 128.00428915127603 H 0.0 **** 0.06
34860 H 85.2321092893547 16.614863334522227 129.5083216995961 H 0.0 **** 0.06
34861 C 48.586850407371855 56.51760509915502 53.115308138784656 C 0.0 **** -0.24
34862 H 49.03640138979999 57.366517834865334 52.601553415008226 H 0.0 **** 0.06
34863 H 47.80073610275096 56.87249476357505 53.783203044988085 H 0.0 **** 0.06
34864 H 49.349270009801984 55.99850452780714 53.6952243372084 H 0.0 **** 0.06
34865 H 48.15991762157469 55.83362568097132 52.38181686506559 H 0.0 **** 0.06
34866 C 33.7433247908464 23.119692089629588 10.472505168880616 C 0.0 **** -0.24
34867 H 33.06599765568221 23.942329836529744 10.701550971837264 H 0.0 **** 0.06
34868 H 33.27326167549751 22.450973011073508 9.751272635273097 H 0.0 **** 0.06
34869 H 33.96795905802708 22.568659002139036 11.386235937880201 H 0.0 **** 0.06
34870 H 34.667231475350775 23.516864282439315 10.051781274653877 H 0.0 **** 0.06
34871 C 80.25056106745268 1.5311077313814145 142.69917683016482 C 0.0 **** -0.24
34872 H 80.06432674836395 2.4285729130187903 143.28829726157764 H 0.0 **** 0.06
34873 H 81.00962812457573 0.9243648353870881 143.19253384157926 H 0.0 **** 0.06
34874 H 80.59997572759733 1.8142078127925743 141.7058930498607 H 0.0 **** 0.06
34875 H 79.32777250748916 0.9574776461036691 142.60869078263508 H 0.0 **** 0.06
34876 C 143.09553176197733 72.46176734567007 114.83800632526388 C 0.0 **** -0.24
34877 H 143.9644042520128 72.7914525162422 115.40828276113521 H 0.0 **** 0.06
34878 H 143.30355986071058 71.48936439877079 114.38978451944106 H 0.0 **** 0.06
34879 H 142.87941218259022 73.1853186022766 114.05340597877321 H 0.0 **** 0.06
34880 H 142.23576735433568 72.37843724728208 115.50314704275999 H 0.0 **** 0.06
34881 C 141.71892122262287 105.1378387406304 22.703493188828233 C 0.0 **** -0.24
34882 H 141.66802712503662 105.57166643926007 21.705602338692714 H 0.0 **** 0.06
34883 H 141.1273156339474 104.22299644427977 22.733196457460018 H 0.0 **** 0.06
34884 H 141.32473010631978 105.84971955315802 23.429732841951115 H 0.0 **** 0.06
34885 H 142.75714958344574 104.9080678545846 22.946639611230232 H 0.0 **** 0.06
34886 C 82.12387366934693 94.30391168297173 95.63436861178204 C 0.0 **** -0.24
34887 H 81.04538115151223 94.25607785160476 95.48551402610545 H 0.0 **** 0.06
34888 H 82.62691381531047 93.7963712083746 94.8103150668698 H 0.0 **** 0.06
34889 H 82.3831638017052 93.81564958653908 96.57413330512922 H 0.0 **** 0.06
34890 H 82.44078476611814 95.34599251186924 95.66765181647885 H 0.0 **** 0.06
34891 C 40.482475133338816 142.29140164838665 129.03439378012422 C 0.0 **** -0.24
34892 H 40.277057983932735 141.388624103075 129.6084654971425 H 0.0 **** 0.06
34893 H 39.70837135095082 142.42430637646166 128.27821814579022 H 0.0 **** 0.06
34894 H 41.453588367499364 142.20003745789572 128.54874624245474 H 0.0 **** 0.06
34895 H 40.4899050772419 143.1524464439979 129.70206099837588 H 0.0 **** 0.06
34896 C 33.431312840472316 131.384648228245 75.39786038583475 C 0.0 **** -0.24
34897 H 33.51334332279778 132.46378250078945 75.27237305436063 H 0.0 **** 0.06
34898 H 33.44698542495689 131.13881014684225 76.45979772717942 H 0.0 **** 0.06
34899 H 34.26923143318153 130.8965660928489 74.89980198538609 H 0.0 **** 0.06
34900 H 32.49611544090524 131.03775067600967 74.95805949948038 H 0.0 **** 0.06
34901 C 96.78192755732907 57.33299588530551 15.071785046666719 C 0.0 **** -0.24
34902 H 97.7090743722836 57.81337028912111 14.758810412962816 H 0.0 **** 0.06
34903 H 96.64075997092625 57.47801322559327 16.142858612006933 H 0.0 **** 0.06
34904 H 96.83438643067905 56.266376360217095 14.85295460760915 H 0.0 **** 0.06
34905 H 95.94522480921103 57.77423428433771 14.530787769371784 H 0.0 **** 0.06
34906 C 136.69617211344286 57.66400580099736 60.373024767892616 C 0.0 **** -0.24
34907 H 137.3320329986313 57.02291276475074 60.983868909362855 H 0.0 **** 0.06
34908 H 137.28115730194907 58.0782548719838 59.5515578145957 H 0.0 **** 0.06
34909 H 136.3030281115856 58.47565405490417 60.98492818122014 H 0.0 **** 0.06
34910 H 135.86927466160535 57.07737178496376 59.97167445933775 H 0.0 **** 0.06
34911 C 64.81418719818316 8.946438054535491 54.313880827628395 C 0.0 **** -0.24
34912 H 65.05536145731331 8.047564437857517 54.88175591692851 H 0.0 **** 0.06
34913 H 64.99966816801332 9.825930794712633 54.929113428214634 H 0.0 **** 0.06
34914 H 63.76363062658764 8.921056102829311 54.023629965835795 H 0.0 **** 0.06
34915 H 65.43682595052921 8.987793657263353 53.42013108753163 H 0.0 **** 0.06
34916 C 139.94125692687118 124.70967290223794 100.48633089676065 C 0.0 **** -0.24
34917 H 140.39202802676868 124.06998657445357 99.7275682761271 H 0.0 **** 0.06
34918 H 138.8650244858319 124.76709073982866 100.32000930850437 H 0.0 **** 0.06
34919 H 140.37248979015152 125.70900823825465 100.42309306496345 H 0.0 **** 0.06
34920 H 140.13450762156762 124.29240281879436 101.47470468910505 H 0.0 **** 0.06
34921 C 79.73089874723769 80.09555221166892 95.92323094482126 C 0.0 **** -0.24
34922 H 79.24172989012546 81.04613137822004 96.13429004680702 H 0.0 **** 0.06
34923 H 80.68351401694787 80.05124794758149 96.4522207627565 H 0.0 **** 0.06
34924 H 79.90571934083466 80.00615422638985 94.85092144202324 H 0.0 **** 0.06
34925 H 79.09279821189796 79.27647818879666 96.25656170345187 H 0.0 **** 0.06
34926 C 131.41507575463777 7.852059940197165 116.74624420259296 C 0.0 **** -0.24
34927 H 130.8115997835759 7.3224428526716 117.48362972118419 H 0.0 **** 0.06
34928 H 132.02654124104788 7.134814848464259 116.1967531394588 H 0.0 **** 0.06
34929 H 132.0611427185998 8.56848741837274 117.25249610945163 H 0.0 **** 0.06
34930 H 130.7603989304319 8.378893916344538 116.05290441556635 H 0.0 **** 0.06
34931 C 135.7981935578047 132.77431194068225 106.9624456738937 C 0.0 **** -0.24
34932 H 136.30633722312177 133.09832845850497 106.05434369900478 H 0.0 **** 0.06
34933 H 134.95422637499132 133.4350198992966 107.16228889393942 H 0.0 **** 0.06
34934 H 136.49407026696878 132.8097326707245 107.80069794900281 H 0.0 **** 0.06
34935 H 135.43860073070883 131.75300299925343 106.83179346341795 H 0.0 **** 0.06
34936 C 88.30486967979942 87.54364403522493 125.02079361114863 C 0.0 **** -0.24
34937 H 89.27607417929454 87.05329497309765 125.08241736125615 H 0.0 **** 0.06
34938 H 88.2889214363814 88.21009125430419 124.15775786235497 H 0.0 **** 0.06
34939 H 88.13052642345187 88.12052359387644 125.9295990602642 H 0.0 **** 0.06
34940 H 87.52474583823772 86.79083140080547 124.9128085347644 H 0.0 **** 0.06
34941 C 68.19255470012632 63.63467214394217 129.76097268042156 C 0.0 **** -0.24
34942 H 69.17691047746996 63.87387436691358 130.16354801822933 H 0.0 **** 0.06
34943 H 68.10236821838049 62.554454718621855 129.64125775733993 H 0.0 **** 0.06
34944 H 68.06855948707798 64.11970896525355 128.79259549249463 H 0.0 **** 0.06
34945 H 67.4245501993228 63.99012254564121 130.44636957336684 H 0.0 **** 0.06
34946 C 96.36524375152746 42.723593028584915 20.35102249435394 C 0.0 **** -0.24
34947 H 96.7236744280704 41.975668398586535 21.05788391557042 H 0.0 **** 0.06
34948 H 95.4813042065868 42.344256801271854 19.837030410677357 H 0.0 **** 0.06
34949 H 97.14576092930645 42.93839835918959 19.622304835564613 H 0.0 **** 0.06
34950 H 96.10827521494387 43.63667597082406 20.88819901783077 H 0.0 **** 0.06
34951 C 116.14504468311067 78.95395379877326 121.27545574772688 C 0.0 **** -0.24
34952 H 115.63290075875888 79.49362567232134 120.47934285845582 H 0.0 **** 0.06
34953 H 116.7942770303243 78.1945341792557 120.84020400661757 H 0.0 **** 0.06
34954 H 115.40848127328583 78.4755397476427 121.92178637606452 H 0.0 **** 0.06
34955 H 116.7435662755375 79.65196756356971 121.86075274972706 H 0.0 **** 0.06
34956 C 102.14793806309456 45.33310521857048 80.7320275370304 C 0.0 **** -0.24
34957 H 101.71141954163426 46.116349535035795 81.35091102447288 H 0.0 **** 0.06
34958 H 103.17492102454099 45.600083416287845 80.4800005626154 H 0.0 **** 0.06
34959 H 101.56560585361336 45.226173144418794 79.81722668694371 H 0.0 **** 0.06
34960 H 102.14121339488162 44.39037856120183 81.27913458766918 H 0.0 **** 0.06
34961 C 0.13085447932266447 72.03225584498335 96.21101410300923 C 0.0 **** -0.24
34962 H 0.5717077309932392 71.31573299499897 95.51759912388829 H 0.0 **** 0.06
34963 H -0.5699265934346442 71.51608652772927 96.86879302632012 H 0.0 **** 0.06
34964 H -0.3973242698326942 72.80314827205137 95.64905323910752 H 0.0 **** 0.06
34965 H 0.9178082347516465 72.49197146649644 96.80803854606691 H 0.0 **** 0.06
34966 C 35.219544337260515 23.62693656309449 88.22876036525376 C 0.0 **** -0.24
34967 H 35.91917781021802 24.463095755824554 88.20620486786001 H 0.0 **** 0.06
34968 H 34.798758755673646 23.47855395678664 87.23362115453833 H 0.0 **** 0.06
34969 H 34.41667400968987 23.84400894438278 88.93375096260647 H 0.0 **** 0.06
34970 H 35.743398711016425 22.723464636791277 88.54118952266478 H 0.0 **** 0.06
34971 C 7.50133979165355 13.095681526666226 71.40702997940237 C 0.0 **** -0.24
34972 H 8.183294421303032 13.899888757542215 71.1293655334236 H 0.0 **** 0.06
34973 H 6.944775642635051 12.771643653351987 70.5271880985311 H 0.0 **** 0.06
34974 H 6.805480769371087 13.455177786745708 72.16456844207478 H 0.0 **** 0.06
34975 H 8.071905839212832 12.257272005286438 71.80635534677545 H 0.0 **** 0.06
34976 C 74.48311460826783 115.60217954105353 123.53918209548466 C 0.0 **** -0.24
34977 H 73.87822293301632 116.35391875356821 123.03322649890163 H 0.0 **** 0.06
34978 H 75.45656015847216 116.0259670109373 123.78708098883202 H 0.0 **** 0.06
34979 H 74.6177906632324 114.74199938940667 122.88252509726772 H 0.0 **** 0.06
34980 H 73.98028884257728 115.28575518262765 124.45307419718932 H 0.0 **** 0.06
34981 C 45.41527979069926 48.63879348928849 67.13037473158225 C 0.0 **** -0.24
34982 H 46.08257661724548 48.40989703688514 66.29964960145391 H 0.0 **** 0.06
34983 H 44.53754663753597 47.99489793446632 67.0788295666777 H 0.0 **** 0.06
34984 H 45.10559188516832 49.682029888539674 67.07041556565963 H 0.0 **** 0.06
34985 H 45.93672391504552 48.46852173820817 68.07212652418681 H 0.0 **** 0.06
34986 C 86.6359834616294 47.41979056143697 75.86614081345253 C 0.0 **** -0.24
34987 H 86.22444868267955 48.004800075891296 76.68906968097362 H 0.0 **** 0.06
34988 H 86.50345469287954 47.96413155958248 74.93166617150803 H 0.0 **** 0.06
34989 H 86.11823931276899 46.46251101690848 75.80696514705232 H 0.0 **** 0.06
34990 H 87.6986973220402 47.24749554586839 76.04004488688088 H 0.0 **** 0.06
34991 C 132.02554629093478 60.46411809283144 110.94990231562856 C 0.0 **** -0.24
34992 H 132.55836330597705 59.89770647940807 111.71390416296681 H 0.0 **** 0.06
34993 H 131.06094853423352 59.99363319921201 110.7564286000365 H 0.0 **** 0.06
34994 H 132.61348258212593 60.48058478635208 110.03287853827986 H 0.0 **** 0.06
34995 H 131.86910881430046 61.485422653642416 111.2994238117082 H 0.0 **** 0.06
34996 C 133.0829787270841 30.784483404845474 58.58716124819861 C 0.0 **** -0.24
34997 H 133.16931685898712 30.888701569088674 57.50573571479296 H 0.0 **** 0.06
34998 H 132.05523045817333 30.528076658246277 58.84620374791467 H 0.0 **** 0.06
34999 H 133.35627009176275 31.723996471413002 59.06652215919999 H 0.0 **** 0.06
35000 H 133.75103680493757 29.994161543432256 58.9300718395904 H 0.0 **** 0.06
35001 C 4.644437834500792 139.34689382922605 118.75728564426045 C 0.0 **** -0.24
35002 H 3.940696405227186 140.12749389474516 118.47172067974277 H 0.0 **** 0.06
35003 H 4.487445827659286 138.46939157106075 118.13012443043571 H 0.0 **** 0.06
35004 H 4.485577345270855 139.07982691926244 119.80266431378921 H 0.0 **** 0.06
35005 H 5.664475634251801 139.7100481547547 118.62609576883592 H 0.0 **** 0.06
35006 C 119.53896769735087 30.44129407376694 3.5023403065563627 C 0.0 **** -0.24
35007 H 120.21411983925572 31.280170693984502 3.6688619615100606 H 0.0 **** 0.06
35008 H 120.081884796405 29.628020466740125 3.0209631663458936 H 0.0 **** 0.06
35009 H 118.7160690293299 30.75882277993547 2.8623761084744785 H 0.0 **** 0.06
35010 H 119.1439209063854 30.09838663924974 4.459143559672128 H 0.0 **** 0.06
35011 C 1.3293285866439533 69.62051852629168 111.23584159855284 C 0.0 **** -0.24
35012 H 1.4753939876109143 70.07036164248629 112.21793068302071 H 0.0 **** 0.06
35013 H 0.3985248666789971 69.98918581201153 110.80364510671632 H 0.0 **** 0.06
35014 H 1.279944693595553 68.5368257875056 111.33680262190558 H 0.0 **** 0.06
35015 H 2.163132860427311 69.88785967662864 110.58678764618696 H 0.0 **** 0.06
35016 C 111.91756402688216 15.10687129802448 59.01557246141354 C 0.0 **** -0.24
35017 H 112.5498695459161 15.648686920718 59.71922470182561 H 0.0 **** 0.06
35018 H 111.0155046533524 14.76746589473693 59.52573498652981 H 0.0 **** 0.06
35019 H 112.46220184579332 14.246082098586037 58.627879944514746 H 0.0 **** 0.06
35020 H 111.64448788953811 15.765067986853516 58.19183745477747 H 0.0 **** 0.06
35021 C 129.82139783186233 136.2588126337607 129.33399164917535 C 0.0 **** -0.24
35022 H 129.40858754658032 135.97520225165854 128.36566281367175 H 0.0 **** 0.06
35023 H 130.10709752868405 137.31084332439153 129.31268347812875 H 0.0 **** 0.06
35024 H 130.6973933307912 135.64750785055722 129.54792899694974 H 0.0 **** 0.06
35025 H 129.0706698432843 136.1008954885922 130.10829104697518 H 0.0 **** 0.06
35026 C 108.7066982747986 119.57937673940182 57.24366615922018 C 0.0 **** -0.24
35027 H 109.05525527894731 119.16207010527899 56.2982862672162 H 0.0 **** 0.06
35028 H 107.7008261926856 119.21579550385985 57.452232475734476 H 0.0 **** 0.06
35029 H 108.6939230620995 120.66796161879904 57.177147617847936 H 0.0 **** 0.06
35030 H 109.37886934223225 119.27209512608027 58.04512793832917 H 0.0 **** 0.06
35031 C 107.01901836301553 52.96770867667615 119.80734769840755 C 0.0 **** -0.24
35032 H 107.05479917918112 54.05532392595438 119.86533627506533 H 0.0 **** 0.06
35033 H 106.69803244469782 52.56278596308914 120.76670816275877 H 0.0 **** 0.06
35034 H 108.00953055006303 52.584467225767554 119.56253453259252 H 0.0 **** 0.06
35035 H 106.31147884029943 52.66908807255828 119.0319261456868 H 0.0 **** 0.06
35036 C 137.0104985242017 131.54261938060623 2.881927845440938 C 0.0 **** -0.24
35037 H 137.03663108680408 130.4979669124139 3.191895915615884 H 0.0 **** 0.06
35038 H 136.58023431836372 132.14796966891808 3.6793108194125104 H 0.0 **** 0.06
35039 H 136.40275306184503 131.63940467380993 1.9819017427393213 H 0.0 **** 0.06
35040 H 138.02448405818078 131.88407712852515 2.6730430628872526 H 0.0 **** 0.06
35041 C 39.156503437307485 47.32401853013266 18.546674850482418 C 0.0 **** -0.24
35042 H 39.71758408511872 48.22099489068506 18.28646960987237 H 0.0 **** 0.06
35043 H 39.712605054179555 46.442278111586404 18.227987338863272 H 0.0 **** 0.06
35044 H 38.18867223899457 47.343414662350426 18.045542669698534 H 0.0 **** 0.06
35045 H 39.006486150665324 47.289730545276996 19.626038121392924 H 0.0 **** 0.06
35046 C 111.45387679918376 95.04755040348165 12.278547514495855 C 0.0 **** -0.24
35047 H 110.40348874819098 95.17467601595663 12.014864073921899 H 0.0 **** 0.06
35048 H 111.5497281338494 94.9738211930731 13.361745287086798 H 0.0 **** 0.06
35049 H 112.02349000814995 95.90521662127792 11.919210076628652 H 0.0 **** 0.06
35050 H 111.83705385964338 94.13780874437019 11.816319918258088 H 0.0 **** 0.06
35051 C 2.7987302284656437 43.85659984314351 25.69064654545619 C 0.0 **** -0.24
35052 H 3.1611709242890242 44.87893413053685 25.578440094004833 H 0.0 **** 0.06
35053 H 2.1877277425714112 43.78467701588552 26.590318128309093 H 0.0 **** 0.06
35054 H 3.6474785670333176 43.177510512918104 25.772156294345706 H 0.0 **** 0.06
35055 H 2.1992842452649484 43.5864556452201 24.821418432779893 H 0.0 **** 0.06
35056 C 40.75822125892944 6.300469449799721 135.07490999037833 C 0.0 **** -0.24
35057 H 41.33854029739854 6.839089871932515 135.82368948186735 H 0.0 **** 0.06
35058 H 40.53004826081951 6.966944480036375 134.24306263740388 H 0.0 **** 0.06
35059 H 39.8301137664551 5.943810771228527 135.52147909133504 H 0.0 **** 0.06
35060 H 41.33628763341699 5.449894992988391 134.71141125677818 H 0.0 **** 0.06
35061 C 119.9731960707236 52.38034455641258 93.07378736468144 C 0.0 **** -0.24
35062 H 120.8692101238551 52.81130318613015 93.5217643982595 H 0.0 **** 0.06
35063 H 119.1948234249602 53.1408617085217 93.01388268547919 H 0.0 **** 0.06
35064 H 119.62436671021977 51.55027633334714 93.6880037047255 H 0.0 **** 0.06
35065 H 120.20582235557332 52.018636456435615 92.07241573509256 H 0.0 **** 0.06
35066 C 126.63928848835201 47.19398622931823 52.643120816039044 C 0.0 **** -0.24
35067 H 127.60935006958442 47.02303112888015 53.11036036763308 H 0.0 **** 0.06
35068 H 126.53418967076368 46.541486477635175 51.7759765161031 H 0.0 **** 0.06
35069 H 126.56864330409866 48.23420877201147 52.32495698421502 H 0.0 **** 0.06
35070 H 125.8473690641786 46.979121487228184 53.359284611048196 H 0.0 **** 0.06
35071 C 122.76155847664106 62.59960442665678 30.85505871537569 C 0.0 **** -0.24
35072 H 122.0818485580616 62.25898132138249 31.636641889508176 H 0.0 **** 0.06
35073 H 123.36340880596623 61.76011114947991 30.506890481488306 H 0.0 **** 0.06
35074 H 123.4154481376988 63.37404589014503 31.256194145457926 H 0.0 **** 0.06
35075 H 122.18552230317017 63.004326292884485 30.023352997292427 H 0.0 **** 0.06
35076 C 41.87770355880545 121.61987702570225 125.11423037502368 C 0.0 **** -0.24
35077 H 41.59825550526054 120.63108155514529 124.75031114576225 H 0.0 **** 0.06
35078 H 41.294237026266586 122.37748292995245 124.589599016114 H 0.0 **** 0.06
35079 H 42.93920650849779 121.7871084144209 124.93249971497119 H 0.0 **** 0.06
35080 H 41.67690643861661 121.68284470775892 126.18413668983422 H 0.0 **** 0.06
35081 C 57.67990224954177 140.0507540374667 65.30491580233908 C 0.0 **** -0.24
35082 H 57.691618465384906 139.97416769448026 66.39193656459358 H 0.0 **** 0.06
35083 H 57.83493560508764 141.08951536610724 65.01230431499033 H 0.0 **** 0.06
35084 H 56.716753695885444 139.70671917132026 64.92684463437897 H 0.0 **** 0.06
35085 H 58.475677668874525 139.43336572732667 64.88836322949066 H 0.0 **** 0.06
35086 C 44.08728893572221 118.3835588313947 68.62559504477758 C 0.0 **** -0.24
35087 H 44.779297310549524 118.75391023261939 67.86837235438614 H 0.0 **** 0.06
35088 H 43.21395118491483 119.03448033852463 68.66847006898705 H 0.0 **** 0.06
35089 H 44.58268052172362 118.37485715183449 69.59639231838536 H 0.0 **** 0.06
35090 H 43.77418660054501 117.37204171731464 68.36742273573441 H 0.0 **** 0.06
35091 C 97.5200647010576 120.77674238454493 54.30434400101986 C 0.0 **** -0.24
35092 H 97.95248002871756 119.83516668231691 54.640776784899174 H 0.0 **** 0.06
35093 H 96.87600801338283 120.5943360820891 53.44406914810338 H 0.0 **** 0.06
35094 H 98.31982599378985 121.46161532608672 54.02126652828119 H 0.0 **** 0.06
35095 H 96.9331764174247 121.21649771865448 55.11100768788832 H 0.0 **** 0.06
35096 C 121.49625167887953 125.4279897231545 41.66525663370747 C 0.0 **** -0.24
35097 H 120.82260633400935 125.29429489823171 40.81782308799541 H 0.0 **** 0.06
35098 H 121.85237223887523 126.45825466136985 41.685731637736694 H 0.0 **** 0.06
35099 H 122.3452870815822 124.7519204097166 41.56319255807604 H 0.0 **** 0.06
35100 H 120.96411388109019 125.20692299549594 42.59024352139623 H 0.0 **** 0.06
35101 C 97.0371175712949 136.01209373700877 9.480017480775047 C 0.0 **** -0.24
35102 H 97.0674053456667 136.06222729294439 8.392131860717825 H 0.0 **** 0.06
35103 H 96.68061523027299 135.02942168661627 9.789065414029636 H 0.0 **** 0.06
35104 H 96.36312876854288 136.78013776130624 9.860982595547341 H 0.0 **** 0.06
35105 H 98.0383845070267 136.17787612523722 9.878348555538082 H 0.0 **** 0.06
35106 C 5.7847426508930475 118.65587204757564 123.02873220447827 C 0.0 **** -0.24
35107 H 5.814035418125641 118.08858877644825 122.09802196229128 H 0.0 **** 0.06
35108 H 4.946318794099799 118.31364875375696 123.63514010088687 H 0.0 **** 0.06
35109 H 5.661333404774428 119.71577443215754 122.8038699424491 H 0.0 **** 0.06
35110 H 6.714922714792383 118.50610695217914 123.5752450445878 H 0.0 **** 0.06
35111 C 123.62620895605136 54.017817222078406 16.694771643803335 C 0.0 **** -0.24
35112 H 124.02054364556723 53.51512261913939 15.811896700023965 H 0.0 **** 0.06
35113 H 124.32014966838699 54.79660414884387 17.01024919364994 H 0.0 **** 0.06
35114 H 123.50294935536348 53.29253787022185 17.500073388680107 H 0.0 **** 0.06
35115 H 122.66113146709891 54.46417853560132 16.457873237827073 H 0.0 **** 0.06
35116 C 68.70459006746361 136.0657258087063 15.528115964989752 C 0.0 **** -0.24
35117 H 68.37382760145105 136.93540424686367 14.960650118587438 H 0.0 **** 0.06
35118 H 69.78491953306802 136.11513794679465 15.670047823557013 H 0.0 **** 0.06
35119 H 68.45066800522535 135.15750858393528 14.982235097743256 H 0.0 **** 0.06
35120 H 68.21027185851153 136.05661295637643 16.49915578284623 H 0.0 **** 0.06
35121 C 141.42672887740625 39.923975793944294 75.07061245408302 C 0.0 **** -0.24
35122 H 141.00645240357483 39.03004073476774 74.60947721919764 H 0.0 **** 0.06
35123 H 141.42145371877996 40.74131661750789 74.34866086356709 H 0.0 **** 0.06
35124 H 142.45069642485376 39.723438704644195 75.38477834086997 H 0.0 **** 0.06
35125 H 140.82799041480376 40.200894426649484 75.93817294702549 H 0.0 **** 0.06
35126 C 96.6381543703825 85.18651714204819 9.111481598010794 C 0.0 **** -0.24
35127 H 97.17513519413842 84.52319140649573 9.788918992591107 H 0.0 **** 0.06
35128 H 97.11001562263053 85.16328366281905 8.12960175576417 H 0.0 **** 0.06
35129 H 96.66376672166047 86.20350468056742 9.50342836682259 H 0.0 **** 0.06
35130 H 95.60298480554809 84.85616899746387 9.026094437226284 H 0.0 **** 0.06
35131 C 127.08960103267819 48.77435195091684 83.38037274754802 C 0.0 **** -0.24
35132 H 127.76578142645945 48.18133671104201 83.99454764870185 H 0.0 **** 0.06
35133 H 126.46935783698393 48.110679006483764 82.7767316617171 H 0.0 **** 0.06
35134 H 127.66887978639949 49.425853468723716 82.72689455485893 H 0.0 **** 0.06
35135 H 126.45176389194637 49.38058406209805 84.02505979371563 H 0.0 **** 0.06
35136 C 16.090727547343818 85.08749921803671 118.74477762739072 C 0.0 **** -0.24
35137 H 15.266827969495154 85.64953879301042 118.30402606958206 H 0.0 **** 0.06
35138 H 16.193478420804468 84.13094293451556 118.2313691384981 H 0.0 **** 0.06
35139 H 15.888161968491772 84.9136512871122 119.8008954786563 H 0.0 **** 0.06
35140 H 17.014747626768013 85.65798072486167 118.64028489840824 H 0.0 **** 0.06
35141 C 65.99821995272973 56.53702443776872 91.92741870869544 C 0.0 **** -0.24
35142 H 65.72027735372703 57.590341496661495 91.93381584276948 H 0.0 **** 0.06
35143 H 65.27562283400314 55.96747542376026 92.51219664804657 H 0.0 **** 0.06
35144 H 66.9914153485623 56.41959346674014 92.36199069567209 H 0.0 **** 0.06
35145 H 66.00483393668173 56.169124632568824 90.90151477803201 H 0.0 **** 0.06
35146 C 142.45940891296897 141.16934053818613 40.22625620243605 C 0.0 **** -0.24
35147 H 141.49936513928097 141.6528575102493 40.047890984041516 H 0.0 **** 0.06
35148 H 142.48282189207993 140.773034538101 41.242211593217775 H 0.0 **** 0.06
35149 H 143.26182424797128 141.89643662682568 40.10125297370186 H 0.0 **** 0.06
35150 H 142.59305529528316 140.35405959126967 39.51498372734264 H 0.0 **** 0.06
35151 C 110.2067705770019 65.60920392506407 92.04543451840692 C 0.0 **** -0.24
35152 H 109.25711400069578 65.07587217666065 92.08438983620493 H 0.0 **** 0.06
35153 H 110.69789933300889 65.54675705881236 93.01725286205432 H 0.0 **** 0.06
35154 H 110.02590797535846 66.65483990962643 91.79623177684505 H 0.0 **** 0.06
35155 H 110.84511030434551 65.15893106820168 91.28603699989935 H 0.0 **** 0.06
35156 C 29.758421915699387 91.64269306979797 69.65045362130368 C 0.0 **** -0.24
35157 H 29.21770549058212 90.94254000249641 70.28639723420513 H 0.0 **** 0.06
35158 H 29.47338345500276 92.66248815010835 69.9114287550789 H 0.0 **** 0.06
35159 H 29.51068053776828 91.45203951104179 68.60626382790795 H 0.0 **** 0.06
35160 H 30.830423343339987 91.51582423856638 69.79923233390387 H 0.0 **** 0.06
35161 C 124.44580749105697 141.801980425478 91.56025949281192 C 0.0 **** -0.24
35162 H 123.5323279252365 141.32104954202592 91.90920567549446 H 0.0 **** 0.06
35163 H 125.05979710284038 141.07361848737304 91.02889651319362 H 0.0 **** 0.06
35164 H 125.00020788497106 142.19141925126985 92.4147789774909 H 0.0 **** 0.06
35165 H 124.19089705117997 142.62183442124305 90.88815680506863 H 0.0 **** 0.06
35166 C 112.64191520305282 86.28401815337638 102.41396271275235 C 0.0 **** -0.24
35167 H 112.75505535600915 85.39995989201037 101.78646514846648 H 0.0 **** 0.06
35168 H 113.35405100819749 87.04644188077 102.09870482021662 H 0.0 **** 0.06
35169 H 112.83013064128646 86.01831781802605 103.45379401671951 H 0.0 **** 0.06
35170 H 111.62799198321257 86.67128096986107 102.31598776576217 H 0.0 **** 0.06
35171 C 63.304887022904566 57.26962898933715 124.55590037758299 C 0.0 **** -0.24
35172 H 62.338728459334476 57.715531122024345 124.31990501873472 H 0.0 **** 0.06
35173 H 63.99937848576094 58.05220981365153 124.86396502287167 H 0.0 **** 0.06
35174 H 63.69628170316609 56.763896865388915 123.67425983952 H 0.0 **** 0.06
35175 H 63.185569456968395 56.55001081751902 125.36533466481825 H 0.0 **** 0.06
35176 C 135.37010929804816 80.23848453992349 131.21789325463868 C 0.0 **** -0.24
35177 H 135.7237844218171 80.22863560835134 130.18680993544194 H 0.0 **** 0.06
35178 H 136.16043467478565 79.87900830749521 131.87779747982546 H 0.0 **** 0.06
35179 H 134.49746875664013 79.59127131144209 131.30880773532724 H 0.0 **** 0.06
35180 H 135.09691390273846 81.2562676484028 131.49787138164157 H 0.0 **** 0.06
35181 C 14.465726278020895 54.33302643925229 87.88592967546643 C 0.0 **** -0.24
35182 H 15.291296119978114 53.624219368242066 87.95483465046452 H 0.0 **** 0.06
35183 H 13.874555875012447 54.290984510902575 88.80080668017014 H 0.0 **** 0.06
35184 H 13.83687298417675 54.07566211932536 87.0338633512111 H 0.0 **** 0.06
35185 H 14.862329285208176 55.34015600117304 87.75375918324613 H 0.0 **** 0.06
35186 C 135.53981382615328 96.88210788322161 74.3984681441911 C 0.0 **** -0.24
35187 H 134.89673793243432 96.28354837282393 73.75162202896018 H 0.0 **** 0.06
35188 H 135.11005816455932 96.92484956394227 75.39935131640007 H 0.0 **** 0.06
35189 H 135.62345121862612 97.8909250366458 73.99406903411338 H 0.0 **** 0.06
35190 H 136.52945422799698 96.42712695493921 74.44585115682692 H 0.0 **** 0.06
35191 C 129.5427606444141 40.80732644208575 20.55611647939253 C 0.0 **** -0.24
35192 H 130.08613340615003 41.41684301562587 19.834661388555958 H 0.0 **** 0.06
35193 H 128.49415176613346 40.74630837905095 20.26390741303277 H 0.0 **** 0.06
35194 H 129.6194953700097 41.26037883469395 21.54467665494377 H 0.0 **** 0.06
35195 H 129.9712620353633 39.80577553897226 20.581220461037788 H 0.0 **** 0.06
35196 C 97.49621934092025 61.173896862630585 130.81704842734936 C 0.0 **** -0.24
35197 H 97.20172662335887 60.427672822848734 130.07998631131022 H 0.0 **** 0.06
35198 H 96.70517839602476 61.28229720390422 131.56009724952426 H 0.0 **** 0.06
35199 H 97.6607489054312 62.13044491293209 130.3195820380165 H 0.0 **** 0.06
35200 H 98.41623303868778 60.85725486645882 131.30770157280094 H 0.0 **** 0.06
35201 C 28.837235492436037 131.33818910859583 62.49656802757863 C 0.0 **** -0.24
35202 H 29.647313383798604 130.900794369195 61.91348353695986 H 0.0 **** 0.06
35203 H 28.39011373473417 132.15972812828403 61.937858244928464 H 0.0 **** 0.06
35204 H 29.231554645615276 131.71270911481662 63.44172680228991 H 0.0 **** 0.06
35205 H 28.080837647276184 130.57848626433156 62.69359286050383 H 0.0 **** 0.06
35206 C 51.987202247288195 132.84603087618112 120.62822112409367 C 0.0 **** -0.24
35207 H 51.45291875146674 133.3518830671091 121.43223890362378 H 0.0 **** 0.06
35208 H 51.31571142877459 132.14554610805192 120.13100578115683 H 0.0 **** 0.06
35209 H 52.83707137052352 132.3035473423986 121.04307050638312 H 0.0 **** 0.06
35210 H 52.34300036793253 133.58310464683572 119.90901614098487 H 0.0 **** 0.06
35211 C 50.76421465228066 62.054301103855835 108.85986440067968 C 0.0 **** -0.24
35212 H 50.25832354557147 61.911539006425926 109.81456961882144 H 0.0 **** 0.06
35213 H 51.38920898178654 61.18728297525786 108.64714268866443 H 0.0 **** 0.06
35214 H 51.38672422861083 62.94800890746433 108.90879402809999 H 0.0 **** 0.06
35215 H 50.021593206226925 62.171020424300536 108.06970242735905 H 0.0 **** 0.06
35216 C 17.277077285154405 59.84342310334159 118.49587659928876 C 0.0 **** -0.24
35217 H 17.375969161833325 59.300692751815504 119.43644562820198 H 0.0 **** 0.06
35218 H 16.301310808081553 59.63595583429577 118.05692557753649 H 0.0 **** 0.06
35219 H 18.06028667144875 59.52417517436598 117.80912652562974 H 0.0 **** 0.06
35220 H 17.371729241900482 60.91348225353643 118.68358746059285 H 0.0 **** 0.06
35221 C 56.47927010316218 39.464571539004396 135.14221829889124 C 0.0 **** -0.24
35222 H 56.030952450999024 40.42030483937432 135.41240898682884 H 0.0 **** 0.06
35223 H 57.48312790418893 39.632742121324654 134.7506418424788 H 0.0 **** 0.06
35224 H 55.86883973346448 38.977867969622906 134.38226155715168 H 0.0 **** 0.06
35225 H 56.53501837372349 38.82799004524617 136.02553084246586 H 0.0 **** 0.06
35226 C 65.38861872896874 0.7713951162122683 121.34440695268856 C 0.0 **** -0.24
35227 H 65.6159655571463 0.2372434877991978 120.42126590079786 H 0.0 **** 0.06
35228 H 65.95228603393558 1.7040389985262294 121.37198345371772 H 0.0 **** 0.06
35229 H 65.66435675492795 0.15375479306975492 122.19827216625046 H 0.0 **** 0.06
35230 H 64.32142652908486 0.9895590887060663 121.3833065916402 H 0.0 **** 0.06
35231 C 74.66047621603326 18.142729291180046 26.27388185097834 C 0.0 **** -0.24
35232 H 73.98792461834839 17.364633737460707 25.91271214224622 H 0.0 **** 0.06
35233 H 74.33231387389964 18.478302062938155 27.258193963631754 H 0.0 **** 0.06
35234 H 74.64862621473344 18.983475112052872 25.57959446159913 H 0.0 **** 0.06
35235 H 75.67242280246165 17.74378996532593 26.3447014906439 H 0.0 **** 0.06
35236 C 10.555829825058083 66.25099355090623 30.50242944329179 C 0.0 **** -0.24
35237 H 9.58697053848499 66.14063711726153 30.013526472332984 H 0.0 **** 0.06
35238 H 11.159565003301054 66.97447410294352 29.953069185969028 H 0.0 **** 0.06
35239 H 11.065942870130073 65.28912017143453 30.518893769049996 H 0.0 **** 0.06
35240 H 10.408151668829476 66.60234447790155 31.524235021122138 H 0.0 **** 0.06
35241 C 32.260929412034244 139.11195689846025 138.00446798614922 C 0.0 **** -0.24
35242 H 31.805996568573647 139.97258843514973 137.5133881623659 H 0.0 **** 0.06
35243 H 32.86771282531075 138.56156431967867 137.28550220681532 H 0.0 **** 0.06
35244 H 31.47788692271442 138.46134368189067 138.39419841769887 H 0.0 **** 0.06
35245 H 32.8910030205526 139.45477374152148 138.82611865579977 H 0.0 **** 0.06
35246 C 0.6762113126030442 3.0702209773343725 27.567918841951155 C 0.0 **** -0.24
35247 H 0.72621206364812 2.660207369393447 28.576507287313035 H 0.0 **** 0.06
35248 H 1.1981063347360248 2.405665540034022 26.87945348460275 H 0.0 **** 0.06
35249 H 1.1463127062314413 4.053201465303573 27.55220547881079 H 0.0 **** 0.06
35250 H -0.36727761622677235 3.162464019703009 27.265040950533376 H 0.0 **** 0.06
35251 C 135.07601198484244 94.57960837955571 78.83751719443852 C 0.0 **** -0.24
35252 H 134.4514034191063 94.21013969711623 79.65119154897086 H 0.0 **** 0.06
35253 H 135.46851397456246 95.56248461422194 79.09787537567523 H 0.0 **** 0.06
35254 H 134.47905083537293 94.65573423013586 77.92776601324053 H 0.0 **** 0.06
35255 H 135.90364917503794 93.88914960624618 78.67178757310103 H 0.0 **** 0.06
35256 C 126.63941627855797 56.88205065234517 71.15561202516514 C 0.0 **** -0.24
35257 H 126.20099152754716 57.38571112768126 72.01708213848937 H 0.0 **** 0.06
35258 H 127.69665290355334 57.138794543182996 71.08474443503471 H 0.0 **** 0.06
35259 H 126.12624175827199 57.20128300327144 70.24795264082513 H 0.0 **** 0.06
35260 H 126.53382547186243 55.80350499703617 71.27177027354233 H 0.0 **** 0.06
35261 C 123.93067650701676 5.183469696581284 32.29726156481112 C 0.0 **** -0.24
35262 H 123.43124031530888 4.398603890251195 31.72978907602888 H 0.0 **** 0.06
35263 H 124.26159191697434 4.7834971710420575 33.25679163598386 H 0.0 **** 0.06
35264 H 123.23612655596901 6.006951401724564 32.467338612037594 H 0.0 **** 0.06
35265 H 124.79284245857238 5.545694285244991 31.73697848356987 H 0.0 **** 0.06
35266 C 51.250532090197964 106.6967101240809 84.7442028273059 C 0.0 **** -0.24
35267 H 51.74441920498117 107.36710791894619 85.44812060937902 H 0.0 **** 0.06
35268 H 51.54272720243142 105.66751102244949 84.9571540045644 H 0.0 **** 0.06
35269 H 51.54712112855128 106.95562908577965 83.72763171619746 H 0.0 **** 0.06
35270 H 50.170014811310295 106.79622113513362 84.84437686009998 H 0.0 **** 0.06
35271 C 118.18142557968407 134.34868351703153 3.176488941024324 C 0.0 **** -0.24
35272 H 118.07459648707122 135.1263206124762 3.9329187121192 H 0.0 **** 0.06
35273 H 118.48413117123927 134.7999867510139 2.2311696041941396 H 0.0 **** 0.06
35274 H 117.22757081422328 133.83667221274416 3.044885521479877 H 0.0 **** 0.06
35275 H 118.93723167791687 133.6317639380822 3.495849734712035 H 0.0 **** 0.06
35276 C 21.22583653611096 85.81672401620196 140.52837027348272 C 0.0 **** -0.24
35277 H 21.826184449985114 85.88096864389965 141.43597366411706 H 0.0 **** 0.06
35278 H 21.87579047462401 85.61457570751728 139.6765082696594 H 0.0 **** 0.06
35279 H 20.702339198086456 86.76046360509159 140.37100420001155 H 0.0 **** 0.06
35280 H 20.498352183843018 85.01157589060873 140.6297403632085 H 0.0 **** 0.06
35281 C 22.20098187351178 24.76235021063554 22.672202310562938 C 0.0 **** -0.24
35282 H 21.140601664887868 24.62804800022252 22.460292912592337 H 0.0 **** 0.06
35283 H 22.32020773340699 25.231294005846117 23.64959827203637 H 0.0 **** 0.06
35284 H 22.645748917860587 25.39890656180019 21.90713551919984 H 0.0 **** 0.06
35285 H 22.69742118740875 23.792123194215733 22.67154875661342 H 0.0 **** 0.06
35286 C 86.7684570953643 142.713661599894 110.4714931022599 C 0.0 **** -0.24
35287 H 87.75929846171229 143.00907800289153 110.12508370166563 H 0.0 **** 0.06
35288 H 86.02731399005988 143.42162515452492 110.0996646095274 H 0.0 **** 0.06
35289 H 86.75155188615257 142.7070046924806 111.56170997558291 H 0.0 **** 0.06
35290 H 86.53620962174072 141.71545049136967 110.09881543926468 H 0.0 **** 0.06
35291 C 67.94024044289803 133.02793688340574 9.218646680220218 C 0.0 **** -0.24
35292 H 68.49636157948743 133.38356942831837 8.35126171906353 H 0.0 **** 0.06
35293 H 68.00098637419293 133.76800300280627 10.016881600191596 H 0.0 **** 0.06
35294 H 68.36673427463646 132.08596817758522 9.56209947768457 H 0.0 **** 0.06
35295 H 66.89651389971087 132.87444931649003 8.942999439478001 H 0.0 **** 0.06
35296 C 45.862214425883906 137.9924104408859 30.074113206237996 C 0.0 **** -0.24
35297 H 46.01779001657434 138.76013777048794 30.832840384247646 H 0.0 **** 0.06
35298 H 46.761469726686244 137.38197319387874 29.985941725326256 H 0.0 **** 0.06
35299 H 45.649197544616015 138.46732395164247 29.11634190355329 H 0.0 **** 0.06
35300 H 45.02083337098338 137.3620956297288 30.362444728452743 H 0.0 **** 0.06
35301 C 121.70501310290136 93.13697250522061 39.51510719567159 C 0.0 **** -0.24
35302 H 121.65359889262642 94.1395966133046 39.940274689620054 H 0.0 **** 0.06
35303 H 122.66241768597443 93.00625682777333 39.00937620758123 H 0.0 **** 0.06
35304 H 120.89439846647262 93.0050102963152 38.79861101759164 H 0.0 **** 0.06
35305 H 121.6092591017911 92.39899278287587 40.31117187324071 H 0.0 **** 0.06
35306 C 10.403934856876674 99.60854986774919 110.3335714307552 C 0.0 **** -0.24
35307 H 9.854160419018115 100.4910037951565 110.65853444913174 H 0.0 **** 0.06
35308 H 10.063571411768862 98.7393049778303 110.89766983548074 H 0.0 **** 0.06
35309 H 11.468897490545885 99.75983244148935 110.5065512504656 H 0.0 **** 0.06
35310 H 10.228500839873504 99.4425946544886 109.26995320282006 H 0.0 **** 0.06
35311 C 31.27863959384922 137.87558652553216 144.58810426035433 C 0.0 **** -0.24
35312 H 30.73659450100314 137.21264570575502 143.9140727609187 H 0.0 **** 0.06
35313 H 31.430134467587493 137.37508394144731 145.54446578302364 H 0.0 **** 0.06
35314 H 30.701793293363664 138.78741808357623 144.74095853014654 H 0.0 **** 0.06
35315 H 32.24552704189938 138.1258679652476 144.15092719843616 H 0.0 **** 0.06
35316 C 80.97841302127776 116.93119856119654 137.2996210702477 C 0.0 **** -0.24
35317 H 81.20675957709626 116.78252763141853 138.35484032962952 H 0.0 **** 0.06
35318 H 81.85073082655222 116.67092463133838 136.69967353338998 H 0.0 **** 0.06
35319 H 80.71829455176632 117.97659363411134 137.12871322808255 H 0.0 **** 0.06
35320 H 80.1386961574532 116.2974463855985 137.016273899675 H 0.0 **** 0.06
35321 C 54.80718954390656 20.03033818096751 84.48072994031861 C 0.0 **** -0.24
35322 H 54.13776826207361 20.52029385474586 85.18781372857742 H 0.0 **** 0.06
35323 H 54.71610775200902 18.94940046089924 84.58406734061978 H 0.0 **** 0.06
35324 H 55.83487155463155 20.329795742009104 84.68717791082003 H 0.0 **** 0.06
35325 H 54.53983197725748 20.323517741082114 83.4656577455657 H 0.0 **** 0.06
35326 C 138.26673943980617 133.8786215425624 20.460733525980515 C 0.0 **** -0.24
35327 H 138.88116428747975 133.0988882661635 20.011562084623762 H 0.0 **** 0.06
35328 H 137.58828667237674 134.28420829611835 19.709907884997875 H 0.0 **** 0.06
35329 H 138.90812180616746 134.67466333958777 20.838621079410444 H 0.0 **** 0.06
35330 H 137.68864024488857 133.45659601155066 21.283497598083073 H 0.0 **** 0.06
35331 C 60.78713630154408 36.364546425195755 136.4104971223592 C 0.0 **** -0.24
35332 H 61.54418422093215 36.84867042790097 135.7944871836922 H 0.0 **** 0.06
35333 H 60.66460303149904 36.92127291280204 137.34063861717152 H 0.0 **** 0.06
35334 H 61.10010811933273 35.34432731992345 136.63566944753015 H 0.0 **** 0.06
35335 H 59.839300672155275 36.342716641360084 135.87185808193112 H 0.0 **** 0.06
35336 C 100.34542581832977 0.6322837483144212 85.9295048021605 C 0.0 **** -0.24
35337 H 101.33126914620888 0.6539606548248287 86.39464668130866 H 0.0 **** 0.06
35338 H 100.25993929438928 -0.2531225523018463 85.29912265084609 H 0.0 **** 0.06
35339 H 100.21187155706266 1.5263476048617406 85.32019126110146 H 0.0 **** 0.06
35340 H 99.57907647941656 0.6032639819008807 86.70431604124288 H 0.0 **** 0.06
35341 C 131.3061481203797 14.372105375862702 10.123111788497852 C 0.0 **** -0.24
35342 H 132.24243816787398 14.929835856044747 10.152920783840216 H 0.0 **** 0.06
35343 H 130.6633992398389 14.78373317415435 9.34457960951346 H 0.0 **** 0.06
35344 H 130.80545456889308 14.450220236152234 11.087855229701063 H 0.0 **** 0.06
35345 H 131.51506027935483 13.323861749368689 9.905015502992228 H 0.0 **** 0.06
35346 C 108.56781578446763 109.69467549044204 123.54967806885469 C 0.0 **** -0.24
35347 H 107.62727447398473 109.39102270854094 123.09068689110546 H 0.0 **** 0.06
35348 H 109.39882569104347 109.37163540493755 122.92194518527253 H 0.0 **** 0.06
35349 H 108.65658422064743 109.23621196374053 124.5351973781024 H 0.0 **** 0.06
35350 H 108.58830895208561 110.77985678414116 123.64992020388371 H 0.0 **** 0.06
35351 C 54.221056808139394 125.11054423073989 61.174394647330914 C 0.0 **** -0.24
35352 H 53.539721691510806 124.47589569494015 61.7411543813533 H 0.0 **** 0.06
35353 H 55.07221511967876 125.37910129446121 61.80031440280311 H 0.0 **** 0.06
35354 H 53.69857908502425 126.0149724096404 60.862342399627565 H 0.0 **** 0.06
35355 H 54.57169380755951 124.57159696448917 60.294513738708474 H 0.0 **** 0.06
35356 C 39.33926649624311 47.52732227813431 36.965869875697365 C 0.0 **** -0.24
35357 H 38.46935174043898 46.87011305157861 36.94886151699262 H 0.0 **** 0.06
35358 H 39.22312237359884 48.30136084245481 36.20668098020141 H 0.0 **** 0.06
35359 H 40.237941717693985 46.946056548735044 36.75912873289383 H 0.0 **** 0.06
35360 H 39.42448458800612 47.992375213454295 37.9478436675021 H 0.0 **** 0.06
35361 C 3.936820871622558 125.525936794947 70.11482444867025 C 0.0 **** -0.24
35362 H 4.080725889758867 125.7320142902964 69.05441873020342 H 0.0 **** 0.06
35363 H 4.821666069197761 125.83985700175569 70.66938374861653 H 0.0 **** 0.06
35364 H 3.7775796072587866 124.45702884487812 70.25952739805862 H 0.0 **** 0.06
35365 H 3.067336892701519 126.07503700456604 70.4769494139102 H 0.0 **** 0.06
35366 C 95.33147619157583 48.58725958123311 60.11516198171202 C 0.0 **** -0.24
35367 H 95.86905768035098 48.97055066976412 60.98233841820142 H 0.0 **** 0.06
35368 H 95.82111475372332 47.681481226177326 59.75571017345125 H 0.0 **** 0.06
35369 H 95.33203342504058 49.33846372590247 59.3261291144686 H 0.0 **** 0.06
35370 H 94.30461810527166 48.35699050433922 60.397791573191554 H 0.0 **** 0.06
35371 C 143.63157901575022 112.64151895229958 124.15697517173572 C 0.0 **** -0.24
35372 H 142.79868634562249 112.98353416272704 123.54254755449307 H 0.0 **** 0.06
35373 H 143.29923210800436 111.82273695480575 124.79566014837218 H 0.0 **** 0.06
35374 H 143.98730366377308 113.46415591912785 124.77698668278123 H 0.0 **** 0.06
35375 H 144.43952940291686 112.29639187458719 123.51271798799553 H 0.0 **** 0.06
35376 C 80.6209949794405 113.44426860906052 72.90848003083798 C 0.0 **** -0.24
35377 H 81.02471826556094 114.37985721893526 73.29456593607853 H 0.0 **** 0.06
35378 H 81.0529067257527 113.2381176424793 71.92842698021775 H 0.0 **** 0.06
35379 H 79.53753110929571 113.52607649337048 72.81826120898592 H 0.0 **** 0.06
35380 H 80.8675620174534 112.63187456496595 73.59236783295734 H 0.0 **** 0.06
35381 C 67.58012119308779 11.982007457626281 5.784224283114028 C 0.0 **** -0.24
35382 H 66.98461350147335 12.05973691066464 4.87393055559798 H 0.0 **** 0.06
35383 H 68.63838268531143 11.95707502727737 5.523684654097238 H 0.0 **** 0.06
35384 H 67.31448226752454 11.067351031704106 6.314087918423759 H 0.0 **** 0.06
35385 H 67.38242991461058 12.842300349920663 6.422910552559557 H 0.0 **** 0.06
35386 C 59.19687737042568 108.16105490950221 118.77386438794596 C 0.0 **** -0.24
35387 H 59.04370481762979 109.0708768590026 118.19271111736927 H 0.0 **** 0.06
35388 H 58.268811230620514 107.89515297766005 119.28115755172158 H 0.0 **** 0.06
35389 H 59.97917729367248 108.32996515336484 119.51391645390746 H 0.0 **** 0.06
35390 H 59.49344294373448 107.3507080816074 118.10876836027106 H 0.0 **** 0.06
35391 C 7.00995150244151 14.970613831566666 104.8630013780415 C 0.0 **** -0.24
35392 H 6.498258953440143 15.708324573805172 104.24456584359604 H 0.0 **** 0.06
35393 H 6.2782098291427815 14.28037573669932 105.28409452694869 H 0.0 **** 0.06
35394 H 7.538291671079918 15.477074207759465 105.67008278840355 H 0.0 **** 0.06
35395 H 7.722869356488303 14.416970324058816 104.2521758000523 H 0.0 **** 0.06
35396 C 8.09677293930946 79.90138283389282 27.361229240976144 C 0.0 **** -0.24
35397 H 8.871001908282665 80.48825857260546 27.85518597610283 H 0.0 **** 0.06
35398 H 8.499414904316268 79.46608650531503 26.44691943170384 H 0.0 **** 0.06
35399 H 7.252886649604704 80.54628506457422 27.116637889755417 H 0.0 **** 0.06
35400 H 7.764165472150523 79.1054599796042 28.027416880886612 H 0.0 **** 0.06
35401 C 92.02234082977955 34.4144834576596 40.794617911389736 C 0.0 **** -0.24
35402 H 92.68448285321038 35.21831351823303 41.118210437094575 H 0.0 **** 0.06
35403 H 92.03434283845182 33.614067636995316 41.53336163861495 H 0.0 **** 0.06
35404 H 92.36431085837195 34.02807649289207 39.83356217352585 H 0.0 **** 0.06
35405 H 91.00785849418874 34.799323276303625 40.6919495680974 H 0.0 **** 0.06
35406 C 73.8746358549317 114.20082070329532 95.66421032199781 C 0.0 **** -0.24
35407 H 73.77214196119264 113.84361036478886 94.63959055565796 H 0.0 **** 0.06
35408 H 74.83340927875668 113.87555102259746 96.06879415835301 H 0.0 **** 0.06
35409 H 73.06623120138998 113.79498329385423 96.27375759866756 H 0.0 **** 0.06
35410 H 73.82606587589768 115.28942095800609 95.67535994855534 H 0.0 **** 0.06
35411 C 37.78587966813545 10.044226326359023 132.57010298323792 C 0.0 **** -0.24
35412 H 37.86873275002297 10.42592547742123 133.5869205432357 H 0.0 **** 0.06
35413 H 38.64243823273699 9.406731096839621 132.35086759249697 H 0.0 **** 0.06
35414 H 37.765665608053254 10.87881030439388 131.86892262610178 H 0.0 **** 0.06
35415 H 36.867318493979504 9.46557865168694 132.47294264616366 H 0.0 **** 0.06
35416 C 86.39309614660907 27.39757245068853 34.3989291593168 C 0.0 **** -0.24
35417 H 86.27989553144224 26.320111954006904 34.282975052063506 H 0.0 **** 0.06
35418 H 86.45132077725799 27.645113871825856 35.45958277919545 H 0.0 **** 0.06
35419 H 85.53634132290922 27.9031242911056 33.95436828864767 H 0.0 **** 0.06
35420 H 87.30583967847703 27.723200516203008 33.89941086290017 H 0.0 **** 0.06
35421 C 97.95425155134868 45.83149546083854 128.56558772813605 C 0.0 **** -0.24
35422 H 97.23534137452404 46.29762707551953 129.23955537007694 H 0.0 **** 0.06
35423 H 97.4835718056863 44.98854228959971 128.05926427348416 H 0.0 **** 0.06
35424 H 98.81275781158277 45.479357726329795 129.13723700962564 H 0.0 **** 0.06
35425 H 98.28444327999549 46.561383509215375 127.82570949302355 H 0.0 **** 0.06
35426 C 38.737521457952006 78.89962997967633 132.32713710111653 C 0.0 **** -0.24
35427 H 38.94766748570483 79.82117422521493 132.87057134202834 H 0.0 **** 0.06
35428 H 37.98781220035293 78.32189943866003 132.86903045581187 H 0.0 **** 0.06
35429 H 39.65317998461185 78.31534306752177 132.23698081124306 H 0.0 **** 0.06
35430 H 38.3616689832861 79.141644518064 131.33271777141502 H 0.0 **** 0.06
35431 C 87.39271810695392 53.416431442536094 127.77630559545062 C 0.0 **** -0.24
35432 H 87.35152512664058 52.873211916206 128.71948824249282 H 0.0 **** 0.06
35433 H 86.58503538025546 53.078816842035536 127.12676968681811 H 0.0 **** 0.06
35434 H 88.35136710379365 53.230450113751075 127.29152423772862 H 0.0 **** 0.06
35435 H 87.2831675541501 54.48485818677959 127.96627646569036 H 0.0 **** 0.06
35436 C 73.92282091724411 54.643436562853594 83.06106763809757 C 0.0 **** -0.24
35437 H 74.68501885108122 55.420093343351056 83.0102996269772 H 0.0 **** 0.06
35438 H 72.93447002550704 55.09859370817648 82.98596469732601 H 0.0 **** 0.06
35439 H 74.0074347385463 54.112855502800386 84.00921167607271 H 0.0 **** 0.06
35440 H 74.06315902383002 53.94148132098391 82.23898372664479 H 0.0 **** 0.06
35441 C 82.07277786329553 1.7226610813910952 99.50174998044682 C 0.0 **** -0.24
35442 H 81.83176847076842 2.124172380200008 100.48559346831016 H 0.0 **** 0.06
35443 H 81.17173135121618 1.7002480791329049 98.88821451459242 H 0.0 **** 0.06
35444 H 82.464527047015 0.7113327099929734 99.6089385196602 H 0.0 **** 0.06
35445 H 82.82231327436125 2.3537535651990993 99.02458666860659 H 0.0 **** 0.06
35446 C 6.3818734683207765 121.92903338391137 109.5109772836183 C 0.0 **** -0.24
35447 H 5.752633450129423 121.0513707250965 109.66113114767873 H 0.0 **** 0.06
35448 H 6.979033076386486 121.79877873529058 108.60933380828445 H 0.0 **** 0.06
35449 H 7.041922056667545 122.05405442166447 110.36927006081336 H 0.0 **** 0.06
35450 H 5.752060052223186 122.81309807207643 109.40646110966165 H 0.0 **** 0.06
35451 C 84.85018424114244 102.44231981426873 76.5337702043248 C 0.0 **** -0.24
35452 H 84.10613751974844 102.34663663023184 75.74290668481287 H 0.0 **** 0.06
35453 H 84.6992054574068 101.65251760790943 77.2706954687318 H 0.0 **** 0.06
35454 H 84.7451207421604 103.41425149098552 77.01566995043174 H 0.0 **** 0.06
35455 H 85.84836526971597 102.3543897126562 76.10620643636375 H 0.0 **** 0.06
35456 C 122.07707067023338 73.5323039622129 63.10808065891601 C 0.0 **** -0.24
35457 H 121.03280583781245 73.2220800265327 63.143940972067966 H 0.0 **** 0.06
35458 H 122.19919254598219 74.3110069001805 62.354840389962504 H 0.0 **** 0.06
35459 H 122.70188929459474 72.67636043190066 62.84981852969236 H 0.0 **** 0.06
35460 H 122.37475298504862 73.9176573049985 64.0830785670855 H 0.0 **** 0.06
35461 C 104.50077570533391 13.469161302842963 103.10763107423766 C 0.0 **** -0.24
35462 H 103.4670470851537 13.123708710773023 103.08992375524716 H 0.0 **** 0.06
35463 H 104.70553284906299 13.95187340810481 104.06270509665181 H 0.0 **** 0.06
35464 H 104.65872927443345 14.182290366672326 102.2976189933831 H 0.0 **** 0.06
35465 H 105.16975530321551 12.618656142632013 102.97786146933232 H 0.0 **** 0.06
35466 C 128.12754828188025 134.77911247487586 93.90544085122892 C 0.0 **** -0.24
35467 H 128.11169260123967 133.73457238075326 93.59542721290103 H 0.0 **** 0.06
35468 H 128.75735628040482 134.886443994737 94.78801871376245 H 0.0 **** 0.06
35469 H 127.11295673044978 135.10238300088034 94.14000871562192 H 0.0 **** 0.06
35470 H 128.52617078271314 135.39144150289866 93.09714936946821 H 0.0 **** 0.06
35471 C 59.9239776918305 107.664147249227 39.344982632572 C 0.0 **** -0.24
35472 H 59.65629590244245 106.66471963302533 39.68896494016718 H 0.0 **** 0.06
35473 H 61.006727536599854 107.73269732708948 39.23697993129571 H 0.0 **** 0.06
35474 H 59.58304794869754 108.401947143066 40.07180665267242 H 0.0 **** 0.06
35475 H 59.44937848018611 107.85623628313616 38.38307917736404 H 0.0 **** 0.06
35476 C 65.56399427744594 107.90609632185873 74.44175541421258 C 0.0 **** -0.24
35477 H 64.72419959135001 107.78996172359003 75.12710098507532 H 0.0 **** 0.06
35478 H 66.09254516966007 106.9567965724355 74.35121335716342 H 0.0 **** 0.06
35479 H 66.24369266392705 108.66553928209284 74.82673117922528 H 0.0 **** 0.06
35480 H 65.19391549560513 108.21123127627332 73.46325236035045 H 0.0 **** 0.06
35481 C 140.22077704462808 118.30205331249162 62.13647148344462 C 0.0 **** -0.24
35482 H 139.43263907144038 119.01015260067926 62.39392023988074 H 0.0 **** 0.06
35483 H 141.18993066564113 118.72504344044621 62.40080934459395 H 0.0 **** 0.06
35484 H 140.19160328457602 118.09986857875607 61.06594632896632 H 0.0 **** 0.06
35485 H 140.0665670620272 117.37300816532682 62.68582047805954 H 0.0 **** 0.06
35486 C 33.89097641556501 21.868560572894303 36.016932322355046 C 0.0 **** -0.24
35487 H 34.3294300716895 21.065135912345788 36.6088682170997 H 0.0 **** 0.06
35488 H 32.926214384200904 21.545946876262498 35.625371950586654 H 0.0 **** 0.06
35489 H 34.55633847608459 22.115196789215545 35.1893002667352 H 0.0 **** 0.06
35490 H 33.7512008111988 22.748127703602044 36.64652377968136 H 0.0 **** 0.06
35491 C 120.56785699520056 32.53314699657497 70.51789103412816 C 0.0 **** -0.24
35492 H 120.33113554816678 32.40737841329246 69.46049319183693 H 0.0 **** 0.06
35493 H 121.64861737389195 32.50644657846249 70.6537473887567 H 0.0 **** 0.06
35494 H 120.10928871945369 31.725939695581715 71.09067501332879 H 0.0 **** 0.06
35495 H 120.17983632376608 33.49106943897959 70.86545611796387 H 0.0 **** 0.06
35496 C 107.95646917395943 101.2830352783678 28.060712167706043 C 0.0 **** -0.24
35497 H 107.54378002609313 102.02617913149973 28.742966354019728 H 0.0 **** 0.06
35498 H 108.9806239608178 101.55532673245321 27.802515919014894 H 0.0 **** 0.06
35499 H 107.35097676079384 101.24488945440672 27.15482599577254 H 0.0 **** 0.06
35500 H 107.9517526331622 100.30509831178935 28.542500458931983 H 0.0 **** 0.06
35501 C 141.01761923432403 22.88265245375851 13.420656566560524 C 0.0 **** -0.24
35502 H 139.95613342000726 22.724254069112078 13.231239836816975 H 0.0 **** 0.06
35503 H 141.2845632711487 22.439863601049353 14.380640339311633 H 0.0 **** 0.06
35504 H 141.22591963783694 23.952094495244296 13.443602965750443 H 0.0 **** 0.06
35505 H 141.60202428848854 22.4151670066002 12.628570107712648 H 0.0 **** 0.06
35506 C 58.100470208757656 56.0288158374656 103.03969270602173 C 0.0 **** -0.24
35507 H 58.934771705899834 55.50468443667933 103.50560489929542 H 0.0 **** 0.06
35508 H 57.941326469402554 55.63746209219997 102.03481190710424 H 0.0 **** 0.06
35509 H 58.32735977639203 57.09400809104815 102.98250407593936 H 0.0 **** 0.06
35510 H 57.20021397651584 55.88015847029837 103.63501912961412 H 0.0 **** 0.06
35511 C 104.16574244366714 23.933399434489587 103.07906777480576 C 0.0 **** -0.24
35512 H 104.34967208794825 24.24535180306816 102.0508890400663 H 0.0 **** 0.06
35513 H 104.9181084254086 24.37563733543098 103.7322974244708 H 0.0 **** 0.06
35514 H 104.22121804936762 22.84683406362089 103.14383689900666 H 0.0 **** 0.06
35515 H 103.1747759368202 24.265752734086107 103.38771408852205 H 0.0 **** 0.06
35516 C 2.7182564006159744 96.76616577670171 27.93958098508068 C 0.0 **** -0.24
35517 H 2.5956439157969697 96.66316370021165 26.86141928752653 H 0.0 **** 0.06
35518 H 2.5561624379048453 95.79958732330003 28.417874399183688 H 0.0 **** 0.06
35519 H 1.9932309722651134 97.48644602130551 28.320568465268195 H 0.0 **** 0.06
35520 H 3.72798827649698 97.11546606198965 28.158461788344283 H 0.0 **** 0.06
35521 C 26.294042372384567 114.99889876849254 121.24145053956818 C 0.0 **** -0.24
35522 H 25.813286739818693 114.28469885937601 120.57254887912126 H 0.0 **** 0.06
35523 H 26.097588675103466 116.01208039605508 120.89152653651979 H 0.0 **** 0.06
35524 H 27.36971059025683 114.8191535203158 121.25200930383937 H 0.0 **** 0.06
35525 H 25.895671735695856 114.877696692891 122.24865497665661 H 0.0 **** 0.06
35526 C 123.02330340305892 6.951082048672653 12.341321956824345 C 0.0 **** -0.24
35527 H 123.1757095260323 6.997424725251371 11.262964580068825 H 0.0 **** 0.06
35528 H 123.94340362014484 7.238086931511745 12.851421682639767 H 0.0 **** 0.06
35529 H 122.75129153361823 5.934641558901166 12.625856963529003 H 0.0 **** 0.06
35530 H 122.22265070653762 7.635258651494102 12.624149779339916 H 0.0 **** 0.06
35531 C 75.66297540537376 86.51396560499919 138.59921580027628 C 0.0 **** -0.24
35532 H 76.35668831083423 87.31137404305954 138.8640328047258 H 0.0 **** 0.06
35533 H 75.32138560743375 86.65611385373758 137.57344622331655 H 0.0 **** 0.06
35534 H 74.80743620552671 86.5378755689493 139.27440014566926 H 0.0 **** 0.06
35535 H 76.16684033645373 85.55171483190176 138.68441810100754 H 0.0 **** 0.06
35536 C 110.49261437423534 119.46466020762118 7.491982238710211 C 0.0 **** -0.24
35537 H 109.53815921285566 118.93737694273564 7.483227639647652 H 0.0 **** 0.06
35538 H 110.83900764465098 119.57061457975853 8.520751568659726 H 0.0 **** 0.06
35539 H 110.36536416205446 120.45173339322112 7.0473826330403675 H 0.0 **** 0.06
35540 H 111.2250244779108 118.89781845058111 6.917179002578525 H 0.0 **** 0.06
35541 C 122.77065465528632 26.042334033055525 35.7684460753313 C 0.0 **** -0.24
35542 H 123.34976890193775 26.164145535724188 36.684112809350665 H 0.0 **** 0.06
35543 H 121.84108839380413 25.51821363381781 35.99319776441101 H 0.0 **** 0.06
35544 H 123.34817681984934 25.464976010502333 35.0475246551253 H 0.0 **** 0.06
35545 H 122.54284140812688 27.022824875077262 35.34982602433814 H 0.0 **** 0.06
35546 C 11.414391056560305 124.11674597081992 33.41047572963157 C 0.0 **** -0.24
35547 H 11.2056968620862 124.92399582976577 34.113458198182855 H 0.0 **** 0.06
35548 H 11.140744460131657 123.16270315454804 33.862985196410136 H 0.0 **** 0.06
35549 H 12.475898566093633 124.11330990138266 33.166830879959036 H 0.0 **** 0.06
35550 H 10.831959400004052 124.26733459614616 32.501494250223345 H 0.0 **** 0.06
35551 C 52.66164599594349 121.51160478204835 106.69640388527769 C 0.0 **** -0.24
35552 H 52.21615955383403 121.54493112510207 105.70284209988044 H 0.0 **** 0.06
35553 H 52.91172329947486 120.48056087348479 106.9491404217304 H 0.0 **** 0.06
35554 H 51.95200815036465 121.90269812512551 107.42565900695364 H 0.0 **** 0.06
35555 H 53.56725191117499 122.11887210590598 106.70910277468904 H 0.0 **** 0.06
35556 C 119.32458850183266 84.34037137618401 98.22049348660711 C 0.0 **** -0.24
35557 H 118.74102719678118 83.47243288661709 97.9164592793602 H 0.0 **** 0.06
35558 H 120.20254913306852 84.43066941002975 97.57955014694697 H 0.0 **** 0.06
35559 H 119.64077074115554 84.22002345223693 99.25652536482937 H 0.0 **** 0.06
35560 H 118.71364588136103 85.23882583036358 98.12815365880134 H 0.0 **** 0.06
35561 C 102.9447171297304 99.83266593493201 129.08014991915263 C 0.0 **** -0.24
35562 H 101.89564082286284 100.03189730929093 128.85979863341402 H 0.0 **** 0.06
35563 H 103.01416750363421 99.082741290337 129.86930367550792 H 0.0 **** 0.06
35564 H 103.42692687926004 100.75273915713669 129.4101497880685 H 0.0 **** 0.06
35565 H 103.44091039138482 99.46377409553476 128.1834131232602 H 0.0 **** 0.06
35566 C 22.144580297358203 75.53359472099942 69.48182073051436 C 0.0 **** -0.24
35567 H 21.113080659677593 75.29868736876227 69.74604784585078 H 0.0 **** 0.06
35568 H 22.594751949848245 76.13058513778836 70.27474494375201 H 0.0 **** 0.06
35569 H 22.161319443947207 76.09554877330675 68.54787140073002 H 0.0 **** 0.06
35570 H 22.706263155912666 74.60816100052512 69.35939671553348 H 0.0 **** 0.06
35571 C 84.35416905988315 0.17246573200642956 66.11529743469822 C 0.0 **** -0.24
35572 H 84.47277648277849 0.2828461373619575 67.19267262149862 H 0.0 **** 0.06
35573 H 83.3046004742912 0.30239370762751605 65.85063648178712 H 0.0 **** 0.06
35574 H 84.685145967515 -0.8207560522165807 65.81331128879782 H 0.0 **** 0.06
35575 H 84.9531462482495 0.9275358092229169 65.60514799698691 H 0.0 **** 0.06
35576 C 103.72218286037692 115.83842560239326 112.85271833779073 C 0.0 **** -0.24
35577 H 103.25033566897265 116.34958607695343 113.69290353723157 H 0.0 **** 0.06
35578 H 102.95336264687845 115.45124645692529 112.18430104993315 H 0.0 **** 0.06
35579 H 104.32967259094943 115.01382332190256 113.22570654674094 H 0.0 **** 0.06
35580 H 104.355807929963 116.54081660736189 112.3107311933036 H 0.0 **** 0.06
35581 C 103.66578009714638 59.08128116143513 36.33327860816814 C 0.0 **** -0.24
35582 H 104.10374222542393 58.33651284252535 35.66856571384389 H 0.0 **** 0.06
35583 H 102.93014957321128 58.60175642699551 36.98071721726794 H 0.0 **** 0.06
35584 H 103.17867174797524 59.855955010960386 35.741624358703916 H 0.0 **** 0.06
35585 H 104.45033926917591 59.52844834559376 36.943921976602155 H 0.0 **** 0.06
35586 C 59.84570641643006 107.90995578977676 33.01518682788344 C 0.0 **** -0.24
35587 H 59.29697534999252 107.39427731186983 32.22757220863883 H 0.0 **** 0.06
35588 H 60.778136096435105 107.38195634890307 33.214177696410786 H 0.0 **** 0.06
35589 H 59.24153252524093 107.93578707868492 33.921822659833936 H 0.0 **** 0.06
35590 H 60.06557923131987 108.92958375018098 32.69596473896314 H 0.0 **** 0.06
35591 C 76.20654675431918 128.25228454345793 19.96636389781633 C 0.0 **** -0.24
35592 H 75.5169794593519 128.67617107581682 20.69654679314609 H 0.0 **** 0.06
35593 H 76.0282569233025 128.70624365190113 18.99120504360136 H 0.0 **** 0.06
35594 H 76.047843660707 127.17614493252827 19.901597130583447 H 0.0 **** 0.06
35595 H 77.23249426850396 128.45052832707321 20.278256575516053 H 0.0 **** 0.06
35596 C 142.5956766773061 15.1045808684936 52.74155512824882 C 0.0 **** -0.24
35597 H 143.22709556064987 15.929187670014159 52.41232774877035 H 0.0 **** 0.06
35598 H 143.09971112629395 14.556958227803733 53.537672957747674 H 0.0 **** 0.06
35599 H 142.40498206031614 14.434586416444887 51.90278881779254 H 0.0 **** 0.06
35600 H 141.6500205516539 15.4990263040238 53.114496441764814 H 0.0 **** 0.06
35601 C 114.37707537012149 113.83274093365847 34.95725512443141 C 0.0 **** -0.24
35602 H 114.9443478236682 113.48474155523266 35.820154461572116 H 0.0 **** 0.06
35603 H 113.37317735523989 114.1165061383488 35.27290203924292 H 0.0 **** 0.06
35604 H 114.31394352867018 113.03433612566548 34.218351206751635 H 0.0 **** 0.06
35605 H 114.87787316156074 114.69599854461214 34.51834421117036 H 0.0 **** 0.06
35606 C 11.303308518820685 131.25638712529803 46.18569796440809 C 0.0 **** -0.24
35607 H 11.94277480137687 131.9981245307892 46.6641813898015 H 0.0 **** 0.06
35608 H 11.850369279435775 130.31957650063353 46.07752543797771 H 0.0 **** 0.06
35609 H 11.001642112503525 131.61674614089395 45.202502851132124 H 0.0 **** 0.06
35610 H 10.41733315510865 131.09097437006872 46.79944319722139 H 0.0 **** 0.06
35611 C 126.30623373921748 34.01293625656722 77.11008417698585 C 0.0 **** -0.24
35612 H 126.13877604618096 34.864846433022024 77.76881466206245 H 0.0 **** 0.06
35613 H 125.36586050225301 33.48535257275082 76.9526341876975 H 0.0 **** 0.06
35614 H 127.03108367960353 33.33799917069745 77.56643649551287 H 0.0 **** 0.06
35615 H 126.69142502432219 34.36460098077828 76.15239083319884 H 0.0 **** 0.06
35616 C 59.52547978868233 125.26836114831517 81.95043078064391 C 0.0 **** -0.24
35617 H 59.97751548290296 126.20748137595703 81.63095333797074 H 0.0 **** 0.06
35618 H 59.40599170544073 124.6120471242871 81.08845317471138 H 0.0 **** 0.06
35619 H 58.5503209311816 125.4678436257785 82.394576967736 H 0.0 **** 0.06
35620 H 60.169578612136206 124.78866824238847 82.6879620368004 H 0.0 **** 0.06
35621 C 7.223612156312587 64.14335324310429 139.53939077815062 C 0.0 **** -0.24
35622 H 7.960792262739936 63.34454705783412 139.62048372152842 H 0.0 **** 0.06
35623 H 7.167861245536418 64.6842964959088 140.4842813268341 H 0.0 **** 0.06
35624 H 6.248681975132751 63.71551197252512 139.30650481668886 H 0.0 **** 0.06
35625 H 7.518268045834606 64.82961209588225 138.7442054682207 H 0.0 **** 0.06
35626 C 134.74721528754617 59.589511593394775 115.79244264658064 C 0.0 **** -0.24
35627 H 134.71737907974466 59.4552275097773 114.71114921614935 H 0.0 **** 0.06
35628 H 135.7806203547126 59.545052424994225 116.1355785175428 H 0.0 **** 0.06
35629 H 134.16892787682596 58.80024437128961 116.27200368101091 H 0.0 **** 0.06
35630 H 134.3198248384659 60.559247570324146 116.04890018087286 H 0.0 **** 0.06
35631 C 131.047314566738 136.978662975308 89.31699853716589 C 0.0 **** -0.24
35632 H 131.5534346916706 136.60049277449787 90.20507207214789 H 0.0 **** 0.06
35633 H 131.26038456156775 138.041766964258 89.20255637755486 H 0.0 **** 0.06
35634 H 129.97233808231218 136.83248420759975 89.42023709741483 H 0.0 **** 0.06
35635 H 131.40406914386563 136.4394297439698 88.43817051641932 H 0.0 **** 0.06
35636 C 64.26854994992854 46.58492313163801 69.51258859065378 C 0.0 **** -0.24
35637 H 63.63444585839363 45.698219516779645 69.50876660721403 H 0.0 **** 0.06
35638 H 65.29196663958493 46.29846671030289 69.75684038270312 H 0.0 **** 0.06
35639 H 63.90115564583783 47.290843769476595 70.25674135020263 H 0.0 **** 0.06
35640 H 64.24645997019456 47.05104157819815 68.52716099086476 H 0.0 **** 0.06
35641 C 75.3373928967267 75.73537591608236 74.64099824982418 C 0.0 **** -0.24
35642 H 74.44069178741003 76.14291823100766 74.17536187932512 H 0.0 **** 0.06
35643 H 76.21587812403197 76.05581046877793 74.07971101633197 H 0.0 **** 0.06
35644 H 75.28342078901173 74.64673129466348 74.6426699388934 H 0.0 **** 0.06
35645 H 75.40944098996832 76.09686076296367 75.66680947820849 H 0.0 **** 0.06
35646 C 16.19018916057135 23.20696854002287 6.131031247869732 C 0.0 **** -0.24
35647 H 15.312410859884409 22.741321383516407 5.682212904186056 H 0.0 **** 0.06
35648 H 15.968258949487279 23.477843947959514 7.163610263580466 H 0.0 **** 0.06
35649 H 16.454010697965373 24.101701416679504 5.568444268865591 H 0.0 **** 0.06
35650 H 17.02347891245148 22.504529848911574 6.110199146165723 H 0.0 **** 0.06
35651 C 45.182228941102025 115.22237129807452 86.71530867097908 C 0.0 **** -0.24
35652 H 44.42087535271912 114.51781692862626 86.37867562730992 H 0.0 **** 0.06
35653 H 45.95892735136303 114.68469812847404 87.25913864319557 H 0.0 **** 0.06
35654 H 44.72564181674136 115.96430960839352 87.3696996835464 H 0.0 **** 0.06
35655 H 45.62253418783503 115.7201701288791 85.85128754007297 H 0.0 **** 0.06
35656 C 17.866824109752827 109.61189995866494 84.00785854332855 C 0.0 **** -0.24
35657 H 17.593711358255945 110.23704242610421 83.15783900876863 H 0.0 **** 0.06
35658 H 18.52461103817987 110.17106530861275 84.67404125876556 H 0.0 **** 0.06
35659 H 18.382473463579828 108.72000241393073 83.65183830366902 H 0.0 **** 0.06
35660 H 16.96605605026579 109.32013455940518 84.54709384958977 H 0.0 **** 0.06
35661 C 69.49371044804622 80.69458737172477 2.6905548417685736 C 0.0 **** -0.24
35662 H 68.96003156516298 79.9036668459866 3.2181090983812624 H 0.0 **** 0.06
35663 H 69.84063858727063 81.43916761715866 3.4074132967282367 H 0.0 **** 0.06
35664 H 68.82430239511805 81.16637959747646 1.971997395536647 H 0.0 **** 0.06
35665 H 70.34857521027389 80.26910567747348 2.166522982168914 H 0.0 **** 0.06
35666 C 112.15433521351689 53.271457701740786 55.59094052979495 C 0.0 **** -0.24
35667 H 112.6870450831424 52.957656345389225 56.488534977368516 H 0.0 **** 0.06
35668 H 111.51049957648881 52.460520151448335 55.250003775171564 H 0.0 **** 0.06
35669 H 112.87328158926628 53.518807977432985 54.80934224174544 H 0.0 **** 0.06
35670 H 111.54712278240207 54.148241193900304 55.816394906149725 H 0.0 **** 0.06
35671 C 103.94975145622415 34.283238674372775 19.431923109003662 C 0.0 **** -0.24
35672 H 104.10134577492359 35.29407368046537 19.812183157671654 H 0.0 **** 0.06
35673 H 104.3031495636524 33.5612421846287 20.169268224327254 H 0.0 **** 0.06
35674 H 104.50621982978157 34.15645320077409 18.504098651861796 H 0.0 **** 0.06
35675 H 102.88806687541164 34.12058653333517 19.24539685813781 H 0.0 **** 0.06
35676 C 80.77025867902145 117.20589986079902 89.1829820359336 C 0.0 **** -0.24
35677 H 81.14023052961917 116.27073640755528 89.6019283218898 H 0.0 **** 0.06
35678 H 79.73610419398537 117.07625115268605 88.86210564237898 H 0.0 **** 0.06
35679 H 81.38360946821294 117.48900476416507 88.32738672732295 H 0.0 **** 0.06
35680 H 80.81940174309656 117.98788459903695 89.940240705236 H 0.0 **** 0.06
35681 C 135.8604525984183 114.55681498406999 141.10590509362837 C 0.0 **** -0.24
35682 H 136.17035667108016 115.54169262093147 140.75532066883923 H 0.0 **** 0.06
35683 H 136.17003453659194 113.80081032819298 140.38387330278678 H 0.0 **** 0.06
35684 H 134.7758451080338 114.53487171604208 141.21325029962196 H 0.0 **** 0.06
35685 H 136.32602375422158 114.3526716690922 142.0701591614242 H 0.0 **** 0.06
35686 C 136.69264038949905 113.15090720677381 127.13388973700742 C 0.0 **** -0.24
35687 H 137.67580713338918 113.42883586143284 126.75460132907966 H 0.0 **** 0.06
35688 H 136.05298110792017 114.03316250048567 127.16452489641172 H 0.0 **** 0.06
35689 H 136.79453215398323 112.74066354507005 128.13918380095552 H 0.0 **** 0.06
35690 H 136.24940737578754 112.40127261495115 126.47930183772185 H 0.0 **** 0.06
35691 C 108.03545558888285 51.778651986180094 64.66624396710115 C 0.0 **** -0.24
35692 H 108.33285010749475 52.072558936078224 63.66004415351742 H 0.0 **** 0.06
35693 H 108.82119420268654 51.171379257706306 65.11468072261685 H 0.0 **** 0.06
35694 H 107.11151454366907 51.20157628919691 64.61785469511574 H 0.0 **** 0.06
35695 H 107.87444878350149 52.67062204789717 65.27178762287573 H 0.0 **** 0.06
35696 C 89.78308504208036 27.42791145370883 48.59735875419203 C 0.0 **** -0.24
35697 H 89.68643408056727 28.43473621481727 49.00529434629114 H 0.0 **** 0.06
35698 H 89.25828920313648 27.370973873923283 47.642697861488074 H 0.0 **** 0.06
35699 H 89.35006563224175 26.710975016398912 49.29409699884003 H 0.0 **** 0.06
35700 H 90.83750636382916 27.19701921000678 48.446473583172235 H 0.0 **** 0.06
35701 C 119.5762525416297 71.48380833554938 85.45009822958767 C 0.0 **** -0.24
35702 H 119.33382228797127 70.6277514835308 86.07951074928334 H 0.0 **** 0.06
35703 H 118.71391174223471 72.14765255842349 85.39265200387933 H 0.0 **** 0.06
35704 H 119.8352687750408 71.13686845532635 84.4489707266613 H 0.0 **** 0.06
35705 H 120.42211290489514 72.02093356840021 85.87788857290218 H 0.0 **** 0.06
35706 C 55.129572590873806 24.35962829492695 102.19119797686076 C 0.0 **** -0.24
35707 H 56.04567426169834 24.723364549521982 101.72532290417256 H 0.0 **** 0.06
35708 H 55.02347519781797 24.806096751627983 103.1795638648957 H 0.0 **** 0.06
35709 H 55.176657180177514 23.274375708574503 102.28517559718081 H 0.0 **** 0.06
35710 H 54.27430375294195 24.633799468592805 101.57377084050594 H 0.0 **** 0.06
35711 C 71.0215346153741 66.2296036441196 121.07602431585147 C 0.0 **** -0.24
35712 H 71.16528440279171 66.87127716915118 120.20679881221096 H 0.0 **** 0.06
35713 H 69.95525563985177 66.14262178369432 121.29010676919503 H 0.0 **** 0.06
35714 H 71.53013902552269 66.66471938962106 121.93646882310381 H 0.0 **** 0.06
35715 H 71.43294746318782 65.24184841973518 120.87141511695481 H 0.0 **** 0.06
35716 C 87.41414190437916 133.96825352067526 38.707899846524356 C 0.0 **** -0.24
35717 H 88.40907642996268 134.05707313675725 39.143629397964155 H 0.0 **** 0.06
35718 H 87.25774646681052 132.94575640482537 38.36529223087076 H 0.0 **** 0.06
35719 H 87.32432927961838 134.65289524935912 37.863923937151675 H 0.0 **** 0.06
35720 H 86.66504612272837 134.21836146121242 39.45959889049239 H 0.0 **** 0.06
35721 C 119.26264724909925 48.8910182045845 75.27412367122713 C 0.0 **** -0.24
35722 H 120.00362852503986 48.65341114687499 74.51071320486759 H 0.0 **** 0.06
35723 H 119.26281102752694 49.965319697949894 75.45858280758715 H 0.0 **** 0.06
35724 H 119.50906371706157 48.363060943273695 76.19480217514376 H 0.0 **** 0.06
35725 H 118.27640893779073 48.58144040996626 74.9305142825934 H 0.0 **** 0.06
35726 C 68.86378392686274 51.04271230512151 139.77319993653006 C 0.0 **** -0.24
35727 H 69.17391732255217 51.743862772250395 140.54836393254183 H 0.0 **** 0.06
35728 H 68.09448857524379 50.379519996545724 140.17102351413487 H 0.0 **** 0.06
35729 H 69.7219992816733 50.45296203604073 139.4524821761154 H 0.0 **** 0.06
35730 H 68.4641576603295 51.59497143745605 138.92326549811114 H 0.0 **** 0.06
35731 C 43.92274978868873 86.22735831996573 134.58333433362924 C 0.0 **** -0.24
35732 H 43.96987412297021 85.23956285425794 134.12640080197778 H 0.0 **** 0.06
35733 H 44.2929317909081 86.1726993768459 135.60666641244154 H 0.0 **** 0.06
35734 H 42.88995905120238 86.57592415087576 134.58813577171824 H 0.0 **** 0.06
35735 H 44.53760791152486 86.92204386616419 134.01014115103624 H 0.0 **** 0.06
35736 C 122.39016471493002 85.02999994315664 83.41173767468159 C 0.0 **** -0.24
35737 H 121.3114366670948 85.18127086841619 83.3842464569879 H 0.0 **** 0.06
35738 H 122.87073096633102 85.91779457514914 83.8234143531818 H 0.0 **** 0.06
35739 H 122.75808390482368 84.85255578510228 82.40095681043026 H 0.0 **** 0.06
35740 H 122.62039962640071 84.16758899494371 84.03894675297602 H 0.0 **** 0.06
35741 C 41.50189908530882 5.2890469014178905 18.47563944264681 C 0.0 **** -0.24
35742 H 41.00143883049975 5.9459880970679535 17.764085013455613 H 0.0 **** 0.06
35743 H 42.179867599095786 4.623263307232321 17.940729321863024 H 0.0 **** 0.06
35744 H 40.757950453347206 4.69762892377463 19.009113990535255 H 0.0 **** 0.06
35745 H 42.06818409092651 5.8884282216454835 19.18817870611978 H 0.0 **** 0.06
35746 C 107.45487204998797 144.69753986922993 47.328953985417 C 0.0 **** -0.24
35747 H 106.79280886480133 145.3336572495496 46.741791403536496 H 0.0 **** 0.06
35748 H 106.8747723751094 143.89668177118378 47.789044883674336 H 0.0 **** 0.06
35749 H 107.93367382557149 145.29242585107355 48.10706480421487 H 0.0 **** 0.06
35750 H 108.21680396868798 144.26777054955224 46.67926256151546 H 0.0 **** 0.06
35751 C 68.85829290586018 26.608132254034274 80.79621635121696 C 0.0 **** -0.24
35752 H 67.80881213392558 26.43048550582865 81.03135385441381 H 0.0 **** 0.06
35753 H 68.93160597102238 27.16067822017535 79.85888978224735 H 0.0 **** 0.06
35754 H 69.37499446196874 25.65321724285902 80.69761239582328 H 0.0 **** 0.06
35755 H 69.31617913573332 27.188397454775625 81.59767403563578 H 0.0 **** 0.06
35756 C 131.27977138507867 30.256404564491106 124.23229454644877 C 0.0 **** -0.24
35757 H 130.92336571239855 29.229006832213656 124.31101444030335 H 0.0 **** 0.06
35758 H 131.75896158507277 30.547661292872135 125.16666178706393 H 0.0 **** 0.06
35759 H 130.43629044963552 30.918482498022342 124.03395477867036 H 0.0 **** 0.06
35760 H 131.99859018293583 30.32960815246213 123.41561424956316 H 0.0 **** 0.06
35761 C 76.21588978576868 22.368714353525753 115.09444907396593 C 0.0 **** -0.24
35762 H 77.1764518835239 22.409748695277827 114.58249452141806 H 0.0 **** 0.06
35763 H 76.37885093163891 22.206683331054613 116.1605647179579 H 0.0 **** 0.06
35764 H 75.62200461669887 21.550482856700867 114.68841523952383 H 0.0 **** 0.06
35765 H 75.6860472548436 23.310946651271692 114.94803470446473 H 0.0 **** 0.06
35766 C 66.24722691975165 36.02380941042745 108.62111025567823 C 0.0 **** -0.24
35767 H 66.00932334651665 37.055209893407586 108.87899157901101 H 0.0 **** 0.06
35768 H 66.48977394505128 35.46941352685068 109.52918578028714 H 0.0 **** 0.06
35769 H 67.10154360915222 36.00610078180359 107.94539786391776 H 0.0 **** 0.06
35770 H 65.38716184335689 35.563694695598656 108.13353210220323 H 0.0 **** 0.06
35771 C 135.33073086223115 111.59115623977308 61.04637499051336 C 0.0 **** -0.24
35772 H 135.7238283928026 111.03258249368903 60.19663525431315 H 0.0 **** 0.06
35773 H 134.73289536238238 112.4279712272855 60.68616913521737 H 0.0 **** 0.06
35774 H 136.15839040686626 111.96718054086918 61.647522464986366 H 0.0 **** 0.06
35775 H 134.70865958336938 110.93468694152759 61.65582173584488 H 0.0 **** 0.06
35776 C 142.53719019613453 136.9335052228087 28.921246756277128 C 0.0 **** -0.24
35777 H 143.41570684405264 137.12878787354808 28.305241773932607 H 0.0 **** 0.06
35778 H 142.61722480783402 137.49039403887772 29.85498720039186 H 0.0 **** 0.06
35779 H 142.47613430853 135.8666935458415 29.137725268004942 H 0.0 **** 0.06
35780 H 141.64109130992014 137.24822263510023 28.3868231292343 H 0.0 **** 0.06
35781 C 112.5091570150394 51.86914606868288 88.3296079070034 C 0.0 **** -0.24
35782 H 111.81903652396095 51.02893628062037 88.2561293720452 H 0.0 **** 0.06
35783 H 112.8748822040629 52.125829948213664 87.3341946899042 H 0.0 **** 0.06
35784 H 113.35036249337254 51.594622761476614 88.9662476811898 H 0.0 **** 0.06
35785 H 111.99258272091727 52.72713245877935 88.76014508354675 H 0.0 **** 0.06
35786 C 27.873443586884292 48.91138829841664 127.32699770903116 C 0.0 **** -0.24
35787 H 28.577557839121255 48.86280408640587 128.15739494701563 H 0.0 **** 0.06
35788 H 28.399450832839534 49.21774760774808 126.42260494972123 H 0.0 **** 0.06
35789 H 27.091387874142413 49.63647684103647 127.55580643815358 H 0.0 **** 0.06
35790 H 27.424998367327447 47.93067855382789 127.1726503155553 H 0.0 **** 0.06
35791 C 118.55588773713718 77.28144247492781 132.98391611690562 C 0.0 **** -0.24
35792 H 117.95099218784092 76.90820175985701 132.15814944550192 H 0.0 **** 0.06
35793 H 119.21620791090687 78.07041375758942 132.6235447928757 H 0.0 **** 0.06
35794 H 119.15300959227714 76.46640239791967 133.39402841887954 H 0.0 **** 0.06
35795 H 117.90239785885807 77.67911632655847 133.7611396588416 H 0.0 **** 0.06
35796 C 114.90227217458444 112.11188506525849 22.859929202750692 C 0.0 **** -0.24
35797 H 114.722264255273 111.22833478078235 23.471128741238203 H 0.0 **** 0.06
35798 H 115.9266759384276 112.45431506046651 23.00891429070552 H 0.0 **** 0.06
35799 H 114.20912450987838 112.9021364073426 23.149944839394408 H 0.0 **** 0.06
35800 H 114.7510374179014 111.86342697415927 21.808989354626405 H 0.0 **** 0.06
35801 C 19.829491252201365 64.4386971029003 130.89244775685376 C 0.0 **** -0.24
35802 H 19.708710427908713 65.37686262692728 130.35174978708375 H 0.0 **** 0.06
35803 H 19.017280659047998 64.32639341125585 131.61081238590657 H 0.0 **** 0.06
35804 H 20.783719957835046 64.44418527738054 131.41923267780945 H 0.0 **** 0.06
35805 H 19.808445555375485 63.60807474707707 130.18643606515738 H 0.0 **** 0.06
35806 C 25.39915873838308 130.1137728388185 9.091624004628535 C 0.0 **** -0.24
35807 H 25.995653432562023 130.75510326774196 8.44220019050156 H 0.0 **** 0.06
35808 H 24.349679504455395 130.18008421002656 8.802687873600082 H 0.0 **** 0.06
35809 H 25.512167525463894 130.43887541998168 10.125281186724415 H 0.0 **** 0.06
35810 H 25.73917075108153 129.0824947866331 8.99436492512427 H 0.0 **** 0.06
35811 C 29.015991813174374 59.3902273902806 5.771769465322482 C 0.0 **** -0.24
35812 H 28.86078945239406 60.18770407698783 6.499871208854618 H 0.0 **** 0.06
35813 H 29.088483056878218 58.43453512797052 6.291279073347226 H 0.0 **** 0.06
35814 H 29.938077851983984 59.57636469970396 5.220981718321042 H 0.0 **** 0.06
35815 H 28.176895772543475 59.364329829691584 5.0775584128837 H 0.0 **** 0.06
35816 C 125.08841376767413 100.86907558190609 29.919390722325026 C 0.0 **** -0.24
35817 H 125.9332866571541 100.2792646909545 30.275424182845285 H 0.0 **** 0.06
35818 H 125.38500138466692 101.91543698442132 29.841457850754693 H 0.0 **** 0.06
35819 H 124.26066344906542 100.77787176892286 30.622722204381674 H 0.0 **** 0.06
35820 H 124.77722127950696 100.50448943326217 28.94113410319565 H 0.0 **** 0.06
35821 C 106.20427375332304 70.01482112482236 23.17884844795111 C 0.0 **** -0.24
35822 H 106.52029662240727 70.69742326247093 23.967732321894715 H 0.0 **** 0.06
35823 H 105.7052764099679 69.15218941813006 23.62239344375709 H 0.0 **** 0.06
35824 H 107.0765446099598 69.68053447999245 22.61719919258168 H 0.0 **** 0.06
35825 H 105.5152306134359 70.52835843893804 22.50864261671441 H 0.0 **** 0.06
35826 C 53.970785273888595 34.53164890105097 143.67932507650838 C 0.0 **** -0.24
35827 H 53.53145189065398 34.85398626083963 144.62369297589692 H 0.0 **** 0.06
35828 H 54.76389435790614 33.80977890014134 143.87608282331286 H 0.0 **** 0.06
35829 H 54.384315491260125 35.393818164701656 143.15785241488447 H 0.0 **** 0.06
35830 H 53.2019060394812 34.06768123406397 143.06185231893653 H 0.0 **** 0.06
35831 C 106.3292074211343 72.39860273904198 123.73237217785405 C 0.0 **** -0.24
35832 H 106.80755582106775 72.05440146193936 122.8166150651492 H 0.0 **** 0.06
35833 H 106.08344894724814 73.45742920502371 123.63816345414065 H 0.0 **** 0.06
35834 H 107.0080698018487 72.255865878925 124.57269349803832 H 0.0 **** 0.06
35835 H 105.41568909317431 71.82739965133098 123.9025287678331 H 0.0 **** 0.06
35836 C 91.91437284225292 87.60950650740912 129.97746430161527 C 0.0 **** -0.24
35837 H 91.35870738291557 86.67174357795264 130.0047134660058 H 0.0 **** 0.06
35838 H 91.2997500094409 88.40790868808173 130.3935503959084 H 0.0 **** 0.06
35839 H 92.17319836556048 87.84769390786212 128.94632999544774 H 0.0 **** 0.06
35840 H 92.8259984839731 87.50786497690024 130.56628820161552 H 0.0 **** 0.06
35841 C 27.591647280760554 118.25094478910502 7.315481557432946 C 0.0 **** -0.24
35842 H 26.59238343607558 117.98160802596483 7.656912887587993 H 0.0 **** 0.06
35843 H 27.515709369329983 118.87658723631567 6.425698497630776 H 0.0 **** 0.06
35844 H 28.15042620195007 117.34574590450198 7.077284151715986 H 0.0 **** 0.06
35845 H 28.108741961288388 118.79884380539018 8.102779230393338 H 0.0 **** 0.06
35846 C 51.16516160318878 49.38716822715642 48.76790498236289 C 0.0 **** -0.24
35847 H 51.853429564013354 50.230666002384595 48.706190694276955 H 0.0 **** 0.06
35848 H 50.59465380721544 49.451192027764904 49.69396257397801 H 0.0 **** 0.06
35849 H 51.73049257126003 48.455065012815766 48.75201739340352 H 0.0 **** 0.06
35850 H 50.48346862806706 49.41289852001219 47.91779820448855 H 0.0 **** 0.06
35851 C 101.55849660372394 114.75052035273394 58.47295126009138 C 0.0 **** -0.24
35852 H 102.4250658774645 114.90383798560482 59.115702588969526 H 0.0 **** 0.06
35853 H 100.73050915690732 114.36119104068696 59.06651712034889 H 0.0 **** 0.06
35854 H 101.81011687516275 114.0382780034091 57.68673055359659 H 0.0 **** 0.06
35855 H 101.26729827327267 115.70081415925968 58.02377515200837 H 0.0 **** 0.06
35856 C 107.13996048881546 106.01010842207921 38.382876103184586 C 0.0 **** -0.24
35857 H 108.11696924140102 106.10441604392156 37.90843444696941 H 0.0 **** 0.06
35858 H 106.84159795680807 106.9748840439517 38.79493770183245 H 0.0 **** 0.06
35859 H 107.19428889313235 105.2741569968149 39.184487467413135 H 0.0 **** 0.06
35860 H 106.40653835978975 105.68898949594029 37.64277979767607 H 0.0 **** 0.06
35861 C 127.74790463154824 62.854077729014605 108.51191460793542 C 0.0 **** -0.24
35862 H 127.59703207361997 62.80338760029595 107.43349730101461 H 0.0 **** 0.06
35863 H 128.81059537329355 62.75737471167872 108.73482674581682 H 0.0 **** 0.06
35864 H 127.20039951344381 62.04375544387334 108.99395077282013 H 0.0 **** 0.06
35865 H 127.38311180987688 63.810970106093194 108.88507954002328 H 0.0 **** 0.06
35866 C 96.68061451390807 25.37022075227761 31.728920107846115 C 0.0 **** -0.24
35867 H 96.30501321643226 25.80002983084014 32.658074434675335 H 0.0 **** 0.06
35868 H 95.89171261334548 25.38536709729196 30.97700636933679 H 0.0 **** 0.06
35869 H 96.99438528180502 24.341158360851118 31.90712067778633 H 0.0 **** 0.06
35870 H 97.53110374771444 25.953805647855887 31.376588408205627 H 0.0 **** 0.06
35871 C 92.28644057379984 59.75697007142432 27.538881759467337 C 0.0 **** -0.24
35872 H 92.57253701233985 59.756058397248836 26.4868000513982 H 0.0 **** 0.06
35873 H 91.20079045435922 59.82859727008851 27.619939495700436 H 0.0 **** 0.06
35874 H 92.74550989462318 60.61051301379233 28.039555087611838 H 0.0 **** 0.06
35875 H 92.62632690104793 58.834835610793164 28.00887022544289 H 0.0 **** 0.06
35876 C 74.89607454331602 115.47543866468835 37.973354045824834 C 0.0 **** -0.24
35877 H 74.34934633233547 114.57447531751252 37.69539326021564 H 0.0 **** 0.06
35878 H 75.59481479901918 115.24294054064536 38.77750553090294 H 0.0 **** 0.06
35879 H 74.19334221291028 116.23673809054306 38.31014967720435 H 0.0 **** 0.06
35880 H 75.44694640871806 115.84624642332624 37.10833223146068 H 0.0 **** 0.06
35881 C 72.63221753340449 2.815517886404109 120.72407853123359 C 0.0 **** -0.24
35882 H 72.11487441036012 2.2179179611696327 119.974113678628 H 0.0 **** 0.06
35883 H 71.92240498539131 3.4900145648600187 121.20358066892196 H 0.0 **** 0.06
35884 H 73.41986532806739 3.3975679825585416 120.24490678434289 H 0.0 **** 0.06
35885 H 73.07098604692078 2.1575656881340706 121.47303174486656 H 0.0 **** 0.06
35886 C 128.95201390855527 145.46057685455756 86.9827451331594 C 0.0 **** -0.24
35887 H 128.19301500490178 145.67569642433713 86.2303481987818 H 0.0 **** 0.06
35888 H 128.93617700532383 146.23815343093395 87.74706299801005 H 0.0 **** 0.06
35889 H 129.93464017981267 145.43471250295235 86.50994960110059 H 0.0 **** 0.06
35890 H 128.74423532451954 144.49505241358978 87.44248359368342 H 0.0 **** 0.06
35891 C 31.42777187119563 135.35998499501503 41.25142603711288 C 0.0 **** -0.24
35892 H 31.21774004979703 135.35179665610687 40.18241367424028 H 0.0 **** 0.06
35893 H 31.65582521350092 136.3774180143882 41.568898263708206 H 0.0 **** 0.06
35894 H 32.28203993337479 134.7150793876998 41.45853169237404 H 0.0 **** 0.06
35895 H 30.55685750795672 134.99597012132682 41.79579926092157 H 0.0 **** 0.06
35896 C 73.89408773956455 87.07062272934054 112.25690828479851 C 0.0 **** -0.24
35897 H 73.33806029643102 88.00733250205221 112.2034457794707 H 0.0 **** 0.06
35898 H 74.80543905598807 87.22273568005829 112.83622286016332 H 0.0 **** 0.06
35899 H 74.15284710224893 86.74338400472762 111.24974081114742 H 0.0 **** 0.06
35900 H 73.27921600966386 86.31137464829405 112.73993312066897 H 0.0 **** 0.06
35901 C 69.32281125955959 122.25372338805282 37.58273177449155 C 0.0 **** -0.24
35902 H 69.22105842474191 123.14047173557248 38.20824325971648 H 0.0 **** 0.06
35903 H 68.5862196165775 121.50952492844895 37.88552427727541 H 0.0 **** 0.06
35904 H 70.32565163370678 121.84178507621776 37.69709926703945 H 0.0 **** 0.06
35905 H 69.15738263523708 122.52596246069514 36.53999538229948 H 0.0 **** 0.06
35906 C 72.58281903000358 89.55764274376878 66.69966849849789 C 0.0 **** -0.24
35907 H 73.33431608450815 89.45632528114045 65.9165555737078 H 0.0 **** 0.06
35908 H 72.1937316620465 88.57268554025731 66.95949009997418 H 0.0 **** 0.06
35909 H 71.76760876284085 90.18729331151123 66.3424832504756 H 0.0 **** 0.06
35910 H 73.03497036291947 90.01351862984255 67.58000832399148 H 0.0 **** 0.06
35911 C 105.65476667034173 74.53532777343106 47.61532956095189 C 0.0 **** -0.24
35912 H 104.67577118819096 74.9881625709076 47.454888176231265 H 0.0 **** 0.06
35913 H 105.85388240248099 74.47022328643571 48.68448211230958 H 0.0 **** 0.06
35914 H 106.42029430073595 75.14817680024946 47.138766405406585 H 0.0 **** 0.06
35915 H 105.66742537137847 73.53621801425642 47.18095150267115 H 0.0 **** 0.06
35916 C 95.41234662075092 73.61402314869599 114.37723708945245 C 0.0 **** -0.24
35917 H 96.04455317332358 74.50004179460132 114.33611949871735 H 0.0 **** 0.06
35918 H 96.00856344612822 72.75589824390983 114.68809728012357 H 0.0 **** 0.06
35919 H 94.98779294977177 73.42443103930435 113.39166218881704 H 0.0 **** 0.06
35920 H 94.60635948469431 73.77540333383541 115.0937139613043 H 0.0 **** 0.06
35921 C 125.0510308557833 18.999370179356383 16.368851181106123 C 0.0 **** -0.24
35922 H 124.72830830001587 19.977798638994187 16.72483826234594 H 0.0 **** 0.06
35923 H 125.05689734168325 18.99283218193184 15.279179346387487 H 0.0 **** 0.06
35924 H 124.36325105906681 18.235767327860223 16.73358475383757 H 0.0 **** 0.06
35925 H 126.05428377383643 18.79025038249707 16.739349985191048 H 0.0 **** 0.06
35926 C 51.1692807431578 2.4100749091210787 40.9789549903073 C 0.0 **** -0.24
35927 H 50.69153661451554 3.272091469657596 40.51459430863403 H 0.0 **** 0.06
35928 H 52.04035807235124 2.1177730909369643 40.39161022138509 H 0.0 **** 0.06
35929 H 50.46263228840701 1.5806595587288825 41.01850327515743 H 0.0 **** 0.06
35930 H 51.48240802874767 2.669098165197852 41.989529123151556 H 0.0 **** 0.06
35931 C 48.04924805279491 37.250522362969065 77.99102540803563 C 0.0 **** -0.24
35932 H 47.277078201662135 37.45053230964152 77.24815890684305 H 0.0 **** 0.06
35933 H 48.1612153931507 38.117341880615896 78.64199707896996 H 0.0 **** 0.06
35934 H 48.99509783828171 37.05000603989447 77.48629047845367 H 0.0 **** 0.06
35935 H 47.765259435811956 36.382347288886734 78.5859870989947 H 0.0 **** 0.06
35936 C 25.343995400089334 68.14175115385933 1.9370265258228123 C 0.0 **** -0.24
35937 H 24.290061035813537 68.32668391592775 2.1452190696986975 H 0.0 **** 0.06
35938 H 25.477679799423015 67.10405727399576 1.631995752031262 H 0.0 **** 0.06
35939 H 25.930419212067463 68.33604022245937 2.8348326013644893 H 0.0 **** 0.06
35940 H 25.676632480770536 68.80210081991525 1.1358119405766232 H 0.0 **** 0.06
35941 C 143.7324024240509 111.79260485060671 43.79163024583198 C 0.0 **** -0.24
35942 H 143.41374373887135 112.36302876483983 42.92034670546008 H 0.0 **** 0.06
35943 H 144.7406211087831 112.09536441117571 44.074961577716124 H 0.0 **** 0.06
35944 H 143.72599995591884 110.72951085042284 43.55180732134335 H 0.0 **** 0.06
35945 H 143.04929338855192 111.98345150242828 44.61975374516169 H 0.0 **** 0.06
35946 C 24.443924276310867 125.8065953955986 127.78289658157232 C 0.0 **** -0.24
35947 H 24.243786507078795 126.04032589169731 126.73717777148416 H 0.0 **** 0.06
35948 H 23.82647043571552 124.96238876880955 128.08974315863523 H 0.0 **** 0.06
35949 H 24.20727365427689 126.67398620881653 128.3990934293392 H 0.0 **** 0.06
35950 H 25.49582314446488 125.55094722525843 127.90212154317979 H 0.0 **** 0.06
35951 C 116.22198708842241 29.646059885894942 132.30149618567992 C 0.0 **** -0.24
35952 H 116.4551178008375 28.595358623288334 132.12997998142998 H 0.0 **** 0.06
35953 H 115.55566274715623 30.002869411279875 131.5147447469585 H 0.0 **** 0.06
35954 H 117.14270052365457 30.22923133797383 132.29028385023219 H 0.0 **** 0.06
35955 H 115.73252016458402 29.756597965393908 133.26893266607692 H 0.0 **** 0.06
35956 C 64.90191854574536 103.34845194428036 71.65376793002669 C 0.0 **** -0.24
35957 H 64.65252586991559 103.60416433317394 70.62455594521006 H 0.0 **** 0.06
35958 H 65.5568513094756 104.11473739668088 72.06994413142236 H 0.0 **** 0.06
35959 H 65.4110422243399 102.3843681174034 71.67598047558555 H 0.0 **** 0.06
35960 H 63.988465885178556 103.28996068463263 72.24503849074591 H 0.0 **** 0.06
35961 C 94.98734281693592 59.58511048771146 114.34718812183286 C 0.0 **** -0.24
35962 H 95.48287363698395 59.21548148194938 113.44924796954456 H 0.0 **** 0.06
35963 H 93.96130886350153 59.86438601728081 114.10637194930604 H 0.0 **** 0.06
35964 H 95.5230511636939 60.4545407284258 114.72521513073809 H 0.0 **** 0.06
35965 H 94.98149243976579 58.802558436511845 115.10668993714086 H 0.0 **** 0.06
35966 C 76.77551315756617 47.530708719637104 10.85088397564499 C 0.0 **** -0.24
35967 H 76.63477890999778 48.01390554843633 11.818096787016827 H 0.0 **** 0.06
35968 H 75.90888309698667 46.908341480687795 10.627831838040777 H 0.0 **** 0.06
35969 H 77.67067223535915 46.91066048788255 10.882129021874164 H 0.0 **** 0.06
35970 H 76.88553544994161 48.29107702643343 10.077456509735214 H 0.0 **** 0.06
35971 C 128.9475000862499 29.65920298679896 63.528018902638564 C 0.0 **** -0.24
35972 H 128.2705576459906 29.01868573463824 62.96307336535287 H 0.0 **** 0.06
35973 H 128.50837888398578 30.651577832099434 63.631249909803216 H 0.0 **** 0.06
35974 H 129.89937730809663 29.7355810236713 63.00236782895445 H 0.0 **** 0.06
35975 H 129.11244848651876 29.229963940052713 64.51602686874195 H 0.0 **** 0.06
35976 C 48.76800286749176 9.567627882192397 41.307094804065144 C 0.0 **** -0.24
35977 H 49.12335193121447 10.488141631191837 41.7695224730972 H 0.0 **** 0.06
35978 H 49.452875528142755 8.753023406680455 41.54473724005891 H 0.0 **** 0.06
35979 H 48.72068994060544 9.69929449624587 40.2255254159285 H 0.0 **** 0.06
35980 H 47.77436828720013 9.330542106180644 41.688111310113314 H 0.0 **** 0.06
35981 C 134.59874377810516 43.47787911308377 108.65240741672412 C 0.0 **** -0.24
35982 H 135.04297282012018 43.20654311471719 109.6093839954913 H 0.0 **** 0.06
35983 H 135.13222758971668 42.97169085579989 107.84745313411705 H 0.0 **** 0.06
35984 H 134.66834764543606 44.55642549611298 108.51268312716442 H 0.0 **** 0.06
35985 H 133.5514270571476 43.17685698570497 108.64010941012353 H 0.0 **** 0.06
35986 C 64.9520422984847 9.71034870193148 4.5857850881594615 C 0.0 **** -0.24
35987 H 64.08444269107159 9.462847511906062 3.975599132561154 H 0.0 **** 0.06
35988 H 64.64286644841361 9.831016671064077 5.624441657365125 H 0.0 **** 0.06
35989 H 65.3951834802161 10.639553557760365 4.228197188094569 H 0.0 **** 0.06
35990 H 65.68572295178097 8.907425884992591 4.5162039639865945 H 0.0 **** 0.06
35991 C 13.890174521656661 137.29182968944892 119.50649469846108 C 0.0 **** -0.24
35992 H 13.497153302906497 137.26351801213252 120.52185354378487 H 0.0 **** 0.06
35993 H 13.58346262434145 138.21951264067644 119.02331248458627 H 0.0 **** 0.06
35994 H 13.502882477502851 136.44342967866405 118.94256901451833 H 0.0 **** 0.06
35995 H 14.978873631956048 137.24077362326756 119.53780690931502 H 0.0 **** 0.06
35996 C 136.87530135985716 4.4608944582968775 117.70271948780896 C 0.0 **** -0.24
35997 H 136.4105276780999 3.5806135970801733 117.25849889778999 H 0.0 **** 0.06
35998 H 137.86505221178388 4.198358271088381 118.07788605010427 H 0.0 **** 0.06
35999 H 136.25764103969826 4.821199268596587 118.52457714639098 H 0.0 **** 0.06
36000 H 136.96704695651178 5.241562810690283 116.94774296204037 H 0.0 **** 0.06
36001 C 24.229929350374782 121.79336562899843 24.681864632141384 C 0.0 **** -0.24
36002 H 24.805801787459856 122.624837739492 24.272878011710105 H 0.0 **** 0.06
36003 H 24.474722134869396 120.88065379865108 24.13883287174471 H 0.0 **** 0.06
36004 H 23.166286055874572 122.00413104172682 24.579362441598363 H 0.0 **** 0.06
36005 H 24.476133528473696 121.66708971486352 25.7362060364282 H 0.0 **** 0.06
36006 C 106.88017259727842 105.04303976561663 7.740721078414907 C 0.0 **** -0.24
36007 H 106.45267535779608 104.42943228400495 6.948139955248763 H 0.0 **** 0.06
36008 H 106.23292007536234 105.90036367178705 7.925062558616702 H 0.0 **** 0.06
36009 H 107.86753893218243 105.39192391396496 7.436613348382366 H 0.0 **** 0.06
36010 H 106.96842616626098 104.45087017635215 8.651054171500846 H 0.0 **** 0.06
36011 C 65.27294031729926 3.6613905990578246 21.065101717580347 C 0.0 **** -0.24
36012 H 65.62898192327592 4.397296797522131 20.343246888067227 H 0.0 **** 0.06
36013 H 66.12401513111692 3.2256109823103998 21.58758678427668 H 0.0 **** 0.06
36014 H 64.72498913779083 2.8774529853105832 20.543584544634342 H 0.0 **** 0.06
36015 H 64.61514018312008 4.148600960628073 21.785225989889938 H 0.0 **** 0.06
36016 C 25.464259154794433 53.68780143573521 121.74403159745223 C 0.0 **** -0.24
36017 H 25.907252316097868 52.90096143727456 122.35385184527514 H 0.0 **** 0.06
36018 H 25.05860032746523 53.252610465759304 120.8302478872934 H 0.0 **** 0.06
36019 H 26.227728056574563 54.42276510389192 121.48910898902416 H 0.0 **** 0.06
36020 H 24.663866742039374 54.172931769373065 122.30263560542544 H 0.0 **** 0.06
36021 C 115.32758444244622 4.081372105111171 0.8615200065093518 C 0.0 **** -0.24
36022 H 115.92321961976292 4.177025168249656 1.7689808009762373 H 0.0 **** 0.06
36023 H 115.70398856815184 3.249846134489246 0.2650701559781794 H 0.0 **** 0.06
36024 H 115.3944756109526 5.003701005430543 0.28447072806162055 H 0.0 **** 0.06
36025 H 114.28713012702381 3.895743488463296 1.128555097340211 H 0.0 **** 0.06
36026 C 88.64451867835572 96.42492497672382 129.385833953007 C 0.0 **** -0.24
36027 H 88.56115641367938 96.4464081893627 128.2994946522211 H 0.0 **** 0.06
36028 H 89.35531850923411 95.65267497621224 129.68031560493424 H 0.0 **** 0.06
36029 H 87.66938496521686 96.20707314733684 129.82099679758417 H 0.0 **** 0.06
36030 H 88.99325008889184 97.39447187645683 129.74227067146197 H 0.0 **** 0.06
36031 C 5.241243208980961 38.85797358197971 84.61853892019886 C 0.0 **** -0.24
36032 H 4.5280494401177975 39.12500084935198 83.83823896878816 H 0.0 **** 0.06
36033 H 5.953155276255615 38.13208148442868 84.22559774229863 H 0.0 **** 0.06
36034 H 4.707958430053992 38.422951549402 85.46406366357843 H 0.0 **** 0.06
36035 H 5.773529764985426 39.750853480907324 84.94458546745268 H 0.0 **** 0.06
36036 C 88.51388676208452 67.37697147109209 42.88313646468269 C 0.0 **** -0.24
36037 H 88.05843182060491 67.0286528333995 43.80996859909904 H 0.0 **** 0.06
36038 H 88.54124628545074 68.4669922839956 42.877843437066886 H 0.0 **** 0.06
36039 H 87.92722276071646 67.02308682551725 42.034827591470005 H 0.0 **** 0.06
36040 H 89.53018312523565 66.98752989572316 42.80988391467099 H 0.0 **** 0.06
36041 C 91.47856338105879 122.91197716125765 102.1933035043514 C 0.0 **** -0.24
36042 H 91.44125974324544 122.07138236540396 102.8866596551134 H 0.0 **** 0.06
36043 H 90.74005240473113 123.65718029027514 102.48738970245613 H 0.0 **** 0.06
36044 H 91.25938125311768 122.56066174762611 101.18507061123967 H 0.0 **** 0.06
36045 H 92.47334195231761 123.35625169007221 102.21552073826192 H 0.0 **** 0.06
36046 C 38.23104429788698 60.1594201503504 27.979388286042138 C 0.0 **** -0.24
36047 H 37.438778153713116 59.848119775942536 27.29889999760664 H 0.0 **** 0.06
36048 H 38.866740604388056 60.894603935228375 27.485773140708773 H 0.0 **** 0.06
36049 H 38.82864583899937 59.292222431111966 28.261376646313124 H 0.0 **** 0.06
36050 H 37.78884758443868 60.60157619300186 28.87205226966728 H 0.0 **** 0.06
36051 C 125.04159077506324 127.24718307004883 80.73769652297199 C 0.0 **** -0.24
36052 H 124.60404346624671 127.36835635787926 79.74710717691846 H 0.0 **** 0.06
36053 H 125.21120591407123 126.18774680137552 80.93294622423213 H 0.0 **** 0.06
36054 H 124.36077960237603 127.65002846736566 81.48747290490172 H 0.0 **** 0.06
36055 H 125.99052824993768 127.78145245702572 80.78406230977203 H 0.0 **** 0.06
36056 C 84.98578657749664 106.38179078299814 38.940257869541476 C 0.0 **** -0.24
36057 H 85.38144024856382 106.1624759050737 37.94868132537397 H 0.0 **** 0.06
36058 H 85.3094201970315 105.60975399497065 39.63932470080616 H 0.0 **** 0.06
36059 H 83.89633952196601 106.40201118489958 38.90023062798147 H 0.0 **** 0.06
36060 H 85.35525706183932 107.35108851686502 39.27239080164264 H 0.0 **** 0.06
36061 C 30.929118280920875 75.57322577451545 89.03255719881003 C 0.0 **** -0.24
36062 H 31.286291671623474 75.33907047241273 90.03427335667861 H 0.0 **** 0.06
36063 H 30.380363363473634 74.72011720779999 88.63358137167265 H 0.0 **** 0.06
36064 H 31.778954192566175 75.79343682879045 88.38629183296199 H 0.0 **** 0.06
36065 H 30.27157878752371 76.44197715490438 89.07481573378192 H 0.0 **** 0.06
36066 C 85.30400480886695 92.47420406949368 92.59156981775743 C 0.0 **** -0.24
36067 H 84.28456311297364 92.85407736603436 92.5257458499236 H 0.0 **** 0.06
36068 H 85.51290639335551 91.84359764656178 91.72694180641093 H 0.0 **** 0.06
36069 H 85.41578928133822 91.88896868165216 93.50415935114165 H 0.0 **** 0.06
36070 H 86.00292821893228 93.31149811546437 92.60896868419414 H 0.0 **** 0.06
36071 C 100.10001554589627 47.343371733270615 90.29121571820355 C 0.0 **** -0.24
36072 H 99.03369495878997 47.2601644986168 90.50034448325181 H 0.0 **** 0.06
36073 H 100.6541517896055 47.36150335372541 91.22908410753539 H 0.0 **** 0.06
36074 H 100.29041164257345 48.26395518915491 89.73776345475213 H 0.0 **** 0.06
36075 H 100.4206327424127 46.488440983145864 89.69585538651233 H 0.0 **** 0.06
36076 C 142.66852116020294 130.21313476023184 125.14474278665419 C 0.0 **** -0.24
36077 H 142.1057180530102 130.8098186750468 125.86222020146079 H 0.0 **** 0.06
36078 H 142.56256815347842 129.15599822581046 125.3893838025999 H 0.0 **** 0.06
36079 H 143.72090472818002 130.49319637948818 125.18648237925875 H 0.0 **** 0.06
36080 H 142.28307661385804 130.39479926763465 124.14116148305473 H 0.0 **** 0.06
36081 C 98.7776463993606 138.57365208454482 79.36612083341629 C 0.0 **** -0.24
36082 H 97.90943872468227 138.9390988810965 78.81817928001274 H 0.0 **** 0.06
36083 H 98.7990619245428 137.4839667922701 79.32706584530284 H 0.0 **** 0.06
36084 H 98.7148525990035 138.89832247369586 80.40516799860943 H 0.0 **** 0.06
36085 H 99.68618298236862 138.9716421937968 78.91470968484488 H 0.0 **** 0.06
36086 C 5.111269310444033 110.44779227337683 51.57280207062277 C 0.0 **** -0.24
36087 H 5.76684713897426 110.74830326924898 50.755083428949334 H 0.0 **** 0.06
36088 H 4.4723116468442825 109.6285555207409 51.241937781296045 H 0.0 **** 0.06
36089 H 4.491854983314788 111.29422418919482 51.871485604497934 H 0.0 **** 0.06
36090 H 5.71285330328184 110.12125449878086 52.41967311967339 H 0.0 **** 0.06
36091 C 78.95898258493736 120.63003673073445 101.35066183841585 C 0.0 **** -0.24
36092 H 79.64697547925348 120.12766944169448 102.02980374550307 H 0.0 **** 0.06
36093 H 79.29077867785455 120.48271262857389 100.32265362855438 H 0.0 **** 0.06
36094 H 78.93910219412982 121.69626030927856 101.57679002856233 H 0.0 **** 0.06
36095 H 77.95838315214061 120.21422639901277 101.47335855960259 H 0.0 **** 0.06
36096 C 6.040747332090177 138.89781599731768 9.650508648100697 C 0.0 **** -0.24
36097 H 6.62097403906202 138.5069888477327 8.814398594954241 H 0.0 **** 0.06
36098 H 5.106514791370955 139.31890754556423 9.279036759294854 H 0.0 **** 0.06
36099 H 6.613526901584976 139.67382426389426 10.158193222729324 H 0.0 **** 0.06
36100 H 5.82391386664824 138.09016631094664 10.349823412615422 H 0.0 **** 0.06
36101 C 72.8188905219675 134.99388135819794 20.209105573801878 C 0.0 **** -0.24
36102 H 72.8593145031676 135.51753538753846 19.25403842888943 H 0.0 **** 0.06
36103 H 72.90240750450228 135.71552682462533 21.021575031679674 H 0.0 **** 0.06
36104 H 73.64324997579094 134.28261271887087 20.26828621334289 H 0.0 **** 0.06
36105 H 71.87217969236626 134.4606911489866 20.29085925589584 H 0.0 **** 0.06
36106 C 98.60414441931746 24.90762196146335 144.21450378372444 C 0.0 **** -0.24
36107 H 98.54522150003666 24.23995449762782 143.35495614542896 H 0.0 **** 0.06
36108 H 98.86094492236879 25.911547267946048 143.87602868996427 H 0.0 **** 0.06
36109 H 99.36978385133332 24.548958637669614 144.90224629728658 H 0.0 **** 0.06
36110 H 97.64045622190045 24.931567885209233 144.72317218589566 H 0.0 **** 0.06
36111 C 93.55192924584209 100.2260304280781 72.90763323721075 C 0.0 **** -0.24
36112 H 93.22944669480745 99.49808512916877 72.16311020373897 H 0.0 **** 0.06
36113 H 92.71122637650996 100.86461803678992 73.17898071259873 H 0.0 **** 0.06
36114 H 94.35457034545769 100.83646701229145 72.49362195035052 H 0.0 **** 0.06
36115 H 93.91307936584528 99.70299737184808 73.79391759907077 H 0.0 **** 0.06
36116 C 34.04748650411091 64.25748012093283 134.2632040329921 C 0.0 **** -0.24
36117 H 34.20841680581789 65.18630770790014 134.81021466967135 H 0.0 **** 0.06
36118 H 34.91842447863428 63.61130248459443 134.3788909494563 H 0.0 **** 0.06
36119 H 33.89697315948847 64.47948159670841 133.20654042018575 H 0.0 **** 0.06
36120 H 33.165300342564734 63.75259574445573 134.6576749042388 H 0.0 **** 0.06
36121 C 63.878296431980175 40.14979541908863 27.23285200827263 C 0.0 **** -0.24
36122 H 63.153309378186634 40.104281561312206 28.04534640510593 H 0.0 **** 0.06
36123 H 64.38401150896588 39.188237880707646 27.142894950995313 H 0.0 **** 0.06
36124 H 64.61234363579214 40.928363637058084 27.44384061092984 H 0.0 **** 0.06
36125 H 63.36350241676578 40.3795161481264 26.300557872853375 H 0.0 **** 0.06
36126 C 86.04409501106058 144.87625126860533 3.0030111988516026 C 0.0 **** -0.24
36127 H 85.856040975216 145.6867283225549 3.7064481011778945 H 0.0 **** 0.06
36128 H 86.15383200117888 143.93915553025954 3.5483177570966262 H 0.0 **** 0.06
36129 H 86.95889906413065 145.0831716926935 2.447083679504768 H 0.0 **** 0.06
36130 H 85.20717743768785 144.79721222030102 2.3084006986938803 H 0.0 **** 0.06
36131 C 61.52902408177745 142.53454099486632 22.050113385038443 C 0.0 **** -0.24
36132 H 62.21160442230878 141.8147009844231 21.600488815533936 H 0.0 **** 0.06
36133 H 61.891982692428584 142.8111648796668 23.04055481145567 H 0.0 **** 0.06
36134 H 60.53761080271511 142.09002830036908 22.13711952956743 H 0.0 **** 0.06
36135 H 61.473510255599976 143.42400389531332 21.422033066259672 H 0.0 **** 0.06
36136 C 60.78518628727059 10.292653427284769 74.53053731089825 C 0.0 **** -0.24
36137 H 61.68392920480065 10.822593590123851 74.8467848557629 H 0.0 **** 0.06
36138 H 61.01288047476342 9.233258272496677 74.40780504743066 H 0.0 **** 0.06
36139 H 60.43793355629566 10.702548246751242 73.58193850798631 H 0.0 **** 0.06
36140 H 60.00804069752476 10.412929851223865 75.28504588821532 H 0.0 **** 0.06
36141 C 84.90879452416492 1.7618162611507842 75.97658126218049 C 0.0 **** -0.24
36142 H 85.13323313368613 0.9423378704103698 76.65919488959192 H 0.0 **** 0.06
36143 H 84.84119154698406 1.377551652269517 74.95834185749297 H 0.0 **** 0.06
36144 H 85.70190754977303 2.506923576813506 76.03154193215411 H 0.0 **** 0.06
36145 H 83.96037253342149 2.2189861931994983 76.25652451285441 H 0.0 **** 0.06
36146 C 138.05987278566016 25.508070205694764 133.11309043001765 C 0.0 **** -0.24
36147 H 137.78113211689376 26.38766283376944 132.53264460728013 H 0.0 **** 0.06
36148 H 137.99462038325512 25.740402314687387 134.1764891572391 H 0.0 **** 0.06
36149 H 139.08119389400653 25.21848357161275 132.8658826834382 H 0.0 **** 0.06
36150 H 137.3824113822724 24.687665886609437 132.87783808851853 H 0.0 **** 0.06
36151 C 143.28975842333205 5.125910621302495 31.174044852685626 C 0.0 **** -0.24
36152 H 143.52070477230703 4.530231851368399 32.05714194825544 H 0.0 **** 0.06
36153 H 143.9884680856577 5.960908228012414 31.107375685881216 H 0.0 **** 0.06
36154 H 142.27175691268386 5.509296769378693 31.250096976953543 H 0.0 **** 0.06
36155 H 143.37890772848164 4.505225653528669 30.28269337810699 H 0.0 **** 0.06
36156 C 78.59215940796832 94.04308644369068 93.37750050186465 C 0.0 **** -0.24
36157 H 78.3782371301738 92.98290876705924 93.24396988290292 H 0.0 **** 0.06
36158 H 77.92082229510376 94.45649958119617 94.13019563092 H 0.0 **** 0.06
36159 H 78.44327572298889 94.56496148394486 92.43141432582038 H 0.0 **** 0.06
36160 H 79.62486566799899 94.16751046450457 93.70277319556048 H 0.0 **** 0.06
36161 C 23.536966936337578 70.21081897957623 104.55209762670349 C 0.0 **** -0.24
36162 H 22.580092583339706 70.30348702644244 105.06606067311606 H 0.0 **** 0.06
36163 H 24.062803196904262 71.16530327401199 104.58783117622036 H 0.0 **** 0.06
36164 H 23.365470756344664 69.92882090247178 103.51305525007695 H 0.0 **** 0.06
36165 H 24.139536346154742 69.4454429574536 105.0404689165244 H 0.0 **** 0.06
36166 C 54.028284013140876 96.67319362435114 98.1822645505182 C 0.0 **** -0.24
36167 H 54.8567738657964 96.52950698387895 98.87618070528828 H 0.0 **** 0.06
36168 H 53.08490328895158 96.59881762544245 98.7231184244288 H 0.0 **** 0.06
36169 H 54.06679196937657 95.9059890439811 97.40911246033025 H 0.0 **** 0.06
36170 H 54.10793875990042 97.65746303858964 97.72119435944079 H 0.0 **** 0.06
36171 C 89.20143880045498 34.815530082019535 82.25974480369959 C 0.0 **** -0.24
36172 H 89.4720637981888 35.55126025518322 83.01612834133604 H 0.0 **** 0.06
36173 H 88.34418316489547 34.23705983331453 82.60693052963424 H 0.0 **** 0.06
36174 H 90.04396241455174 34.14656706991187 82.0849525380278 H 0.0 **** 0.06
36175 H 88.94341313723012 35.326191691958115 81.3315738030183 H 0.0 **** 0.06
36176 C 22.53278381645253 120.89285958693087 13.244591983573798 C 0.0 **** -0.24
36177 H 22.961045363035858 121.77370774521187 13.72338263239098 H 0.0 **** 0.06
36178 H 21.445451678555486 120.96054523030163 13.26381005877991 H 0.0 **** 0.06
36179 H 22.852235376850345 119.99824110987016 13.779266075629522 H 0.0 **** 0.06
36180 H 22.875711405871634 120.84006808668376 12.210570858477894 H 0.0 **** 0.06
36181 C 54.670309981606465 137.60164708293405 127.8513415031188 C 0.0 **** -0.24
36182 H 54.85438977684328 136.57949728432658 128.18233745530324 H 0.0 **** 0.06
36183 H 53.60273615953702 137.81375500675819 127.90646176946339 H 0.0 **** 0.06
36184 H 55.011405577279106 137.71664125062495 126.8226316218435 H 0.0 **** 0.06
36185 H 55.21346724254602 138.29485143697488 128.4937726801097 H 0.0 **** 0.06
36186 C 56.891428695896124 77.43462233713016 126.99577396397042 C 0.0 **** -0.24
36187 H 56.01803124621415 76.83711479549339 126.73308106060462 H 0.0 **** 0.06
36188 H 56.73285291768424 78.4673627658345 126.68313058158024 H 0.0 **** 0.06
36189 H 57.77079499256274 77.0336909792424 126.4926866788936 H 0.0 **** 0.06
36190 H 57.04248246242231 77.40083462325796 128.07476657283976 H 0.0 **** 0.06
36191 C 13.537597514579744 76.11700066942274 56.94076309599146 C 0.0 **** -0.24
36192 H 12.72164273435655 75.62380291527467 57.470074645241766 H 0.0 **** 0.06
36193 H 13.263371979286745 76.25034233504203 55.893914355226215 H 0.0 **** 0.06
36194 H 14.436492801369837 75.5044121485077 57.00674372390016 H 0.0 **** 0.06
36195 H 13.727080607706426 77.09057619592997 57.3930083344858 H 0.0 **** 0.06
36196 C 1.6777452929235324 76.24553711072849 145.04395571771488 C 0.0 **** -0.24
36197 H 2.3565128841153182 75.59177163708108 144.49729210100685 H 0.0 **** 0.06
36198 H 1.5273555909416814 75.85239410741895 146.0492702959794 H 0.0 **** 0.06
36199 H 0.7212056195371588 76.2930474155583 144.52432461490227 H 0.0 **** 0.06
36200 H 2.108294994818692 77.24537005332292 145.10526614021802 H 0.0 **** 0.06
36201 C 63.708007222949604 14.184943877928788 5.650994441824537 C 0.0 **** -0.24
36202 H 64.09654148013391 13.46231162164537 4.933381279611581 H 0.0 **** 0.06
36203 H 63.71776687211329 13.747260958450397 6.648632280431968 H 0.0 **** 0.06
36204 H 62.68652745997312 14.450795930841423 5.379971099342498 H 0.0 **** 0.06
36205 H 64.33162301891274 15.0789130878768 5.638899301351444 H 0.0 **** 0.06
36206 C 61.38098602704777 27.35883028751701 26.37746864755067 C 0.0 **** -0.24
36207 H 62.10228255169062 26.643657897598217 25.98052819224543 H 0.0 **** 0.06
36208 H 61.89817535262445 28.27461150558034 26.66362918872136 H 0.0 **** 0.06
36209 H 60.88898040369011 26.929653415063825 27.251065026481 H 0.0 **** 0.06
36210 H 60.635704093566574 27.58385831677836 25.61447052927116 H 0.0 **** 0.06
36211 C 98.05081153931799 22.286875534896325 7.095514406138697 C 0.0 **** -0.24
36212 H 97.02336112536948 21.929635834188616 7.166277019020008 H 0.0 **** 0.06
36213 H 98.51164485221894 22.266463266980622 8.083521961868822 H 0.0 **** 0.06
36214 H 98.05449340155904 23.30830728194192 6.713711354221896 H 0.0 **** 0.06
36215 H 98.61333891405798 21.644008396288797 6.4185752027717875 H 0.0 **** 0.06
36216 C 107.95617572011916 73.63430672732392 130.01760535818715 C 0.0 **** -0.24
36217 H 108.59102606521883 73.77982811375945 129.14447913907208 H 0.0 **** 0.06
36218 H 108.4516161264146 72.96115604333433 130.7182050406009 H 0.0 **** 0.06
36219 H 107.00568872806421 73.19992053897046 129.7072055683 H 0.0 **** 0.06
36220 H 107.77597592891873 74.59488071824366 130.50140654591405 H 0.0 **** 0.06
36221 C 111.52940138460191 56.305433116583856 118.55807450697756 C 0.0 **** -0.24
36222 H 112.16199437500991 55.479412515238494 118.23335314420245 H 0.0 **** 0.06
36223 H 110.48157295686859 56.03044696968266 118.4324793026363 H 0.0 **** 0.06
36224 H 111.7475697941607 57.187818329345134 117.95737097640188 H 0.0 **** 0.06
36225 H 111.72545383789442 56.52152943694546 119.60783194067841 H 0.0 **** 0.06
36226 C 107.14326379734224 27.15740949119595 78.26658702970863 C 0.0 **** -0.24
36227 H 106.47352848916982 27.812374166529395 78.82412518920415 H 0.0 **** 0.06
36228 H 107.95434026059628 26.829128394435244 78.9178622876916 H 0.0 **** 0.06
36229 H 107.55651089078789 27.699784166075233 77.41649031366245 H 0.0 **** 0.06
36230 H 106.58881462180914 26.289652079509835 77.91057011762766 H 0.0 **** 0.06
36231 C 138.9859142767631 25.327429045756773 69.8930427456234 C 0.0 **** -0.24
36232 H 139.8136488144738 24.734778472243903 69.50344971203634 H 0.0 **** 0.06
36233 H 138.13105958920212 25.24052881561593 69.22255583306969 H 0.0 **** 0.06
36234 H 139.2884764161154 26.37194678497272 69.96384329387564 H 0.0 **** 0.06
36235 H 138.71191947084708 24.960758595343094 70.88238471529957 H 0.0 **** 0.06
36236 C 17.755079642024427 144.80667170576507 121.83642490199465 C 0.0 **** -0.24
36237 H 18.783701512329117 144.61159072466452 122.13949807717351 H 0.0 **** 0.06
36238 H 17.426072843431882 145.75544808246823 122.26063454575923 H 0.0 **** 0.06
36239 H 17.111258793318683 144.00466690068177 122.19772382316533 H 0.0 **** 0.06
36240 H 17.7002912247722 144.85538574870262 120.74919399776847 H 0.0 **** 0.06
36241 C 25.21631485832671 63.44280443888606 59.57132659646504 C 0.0 **** -0.24
36242 H 24.755342022966843 62.503756371321515 59.87782565794515 H 0.0 **** 0.06
36243 H 26.30150213528404 63.35042217197575 59.63126873085338 H 0.0 **** 0.06
36244 H 24.882024464228905 64.24278036970033 60.23174565174929 H 0.0 **** 0.06
36245 H 24.926369044808638 63.672243780819144 58.54585893806194 H 0.0 **** 0.06
36246 C 60.00636440064976 34.70178275871757 59.591055352102074 C 0.0 **** -0.24
36247 H 60.03185469959172 33.71659074594936 59.12534960757796 H 0.0 **** 0.06
36248 H 60.41375990420593 34.63771041049506 60.600337553263046 H 0.0 **** 0.06
36249 H 58.97671141586416 35.05552404035126 59.63631792922169 H 0.0 **** 0.06
36250 H 60.60365093591575 35.39769104273893 59.00145347266522 H 0.0 **** 0.06
36251 C 102.07837356436181 7.412040507419562 14.60134165914696 C 0.0 **** -0.24
36252 H 102.16708566081627 7.483799897239038 15.685939605759053 H 0.0 **** 0.06
36253 H 101.81362194366272 6.391142413595901 14.326215225974742 H 0.0 **** 0.06
36254 H 103.03042671050241 7.677314507046361 14.14180014634919 H 0.0 **** 0.06
36255 H 101.30367110798869 8.09452451909931 14.254473537096743 H 0.0 **** 0.06
36256 C 25.21211336691657 14.233917032244825 138.96892805718505 C 0.0 **** -0.24
36257 H 24.394229111581076 14.663120899343888 139.5476778146324 H 0.0 **** 0.06
36258 H 26.03994474165249 14.942144620064923 138.92944628343534 H 0.0 **** 0.06
36259 H 24.867634887647377 14.021497433294321 137.95630303500863 H 0.0 **** 0.06
36260 H 25.54571044256184 13.309472604705995 139.44009297339088 H 0.0 **** 0.06
36261 C 88.87065410162442 56.57405210094895 121.73861837987492 C 0.0 **** -0.24
36262 H 88.96750967622091 57.26173872831704 122.57763441986678 H 0.0 **** 0.06
36263 H 87.84203542309609 56.58217223714067 121.37790300743423 H 0.0 **** 0.06
36264 H 89.1346711840109 55.567184359986896 122.06194673562631 H 0.0 **** 0.06
36265 H 89.54011110380209 56.88449646397328 120.93534844399765 H 0.0 **** 0.06
36266 C 36.504668823806526 121.6902812711802 82.49179675499492 C 0.0 **** -0.24
36267 H 36.288068698075136 121.60593074567623 83.55727097881771 H 0.0 **** 0.06
36268 H 37.30826453078501 122.41031436394593 82.33966803019406 H 0.0 **** 0.06
36269 H 35.6112247924423 122.02607272073686 81.96579794996826 H 0.0 **** 0.06
36270 H 36.80991043687419 120.7170887234189 82.10521844511192 H 0.0 **** 0.06
36271 C 92.42971078266561 29.98956738667465 117.41344019634577 C 0.0 **** -0.24
36272 H 92.71182539248267 30.786685235477073 116.72652220749065 H 0.0 **** 0.06
36273 H 92.14262213855196 29.104738461611795 116.84495378629516 H 0.0 **** 0.06
36274 H 91.58828246861867 30.317565518863624 118.0241189432805 H 0.0 **** 0.06
36275 H 93.27484762619224 29.749649343311496 118.05765358407963 H 0.0 **** 0.06
36276 C 50.651710489016 29.26008734292145 132.35218369406795 C 0.0 **** -0.24
36277 H 50.35833507682946 28.77557393720376 131.4195628531579 H 0.0 **** 0.06
36278 H 50.190877059401544 28.7397222941759 133.1915755252006 H 0.0 **** 0.06
36279 H 50.319682736225516 30.298383147506264 132.340296523948 H 0.0 **** 0.06
36280 H 51.736615322450064 29.225619373359855 132.45396472440945 H 0.0 **** 0.06
36281 C 110.25087448978525 78.19390559397719 92.01314365403843 C 0.0 **** -0.24
36282 H 109.38894200780197 77.79520073795078 92.5490389547044 H 0.0 **** 0.06
36283 H 111.05030220292491 78.40847432897012 92.7226163470774 H 0.0 **** 0.06
36284 H 109.9659870445181 79.11012849731591 91.49646521572794 H 0.0 **** 0.06
36285 H 110.596579455018 77.45885921375003 91.28563500474948 H 0.0 **** 0.06
36286 C 46.970388233634296 125.41742520520518 90.09862796995873 C 0.0 **** -0.24
36287 H 46.40126075955837 126.21395419893082 89.61855567458548 H 0.0 **** 0.06
36288 H 47.81774934900281 125.14666342411894 89.46851281657487 H 0.0 **** 0.06
36289 H 46.32891339099572 124.54775888907139 90.24000833623433 H 0.0 **** 0.06
36290 H 47.33280663854481 125.762843806338 91.06642792400737 H 0.0 **** 0.06
36291 C 0.929148378165273 91.2414638474019 115.11736409021718 C 0.0 **** -0.24
36292 H -0.08614395040339673 91.48042255552427 114.80117884287564 H 0.0 **** 0.06
36293 H 1.3510351017939755 92.08908621341054 115.65638891834114 H 0.0 **** 0.06
36294 H 1.5406758827443205 91.02601425857193 114.24017109055087 H 0.0 **** 0.06
36295 H 0.9100244316236754 90.36753199365145 115.7694471676949 H 0.0 **** 0.06
36296 C 84.64070119295847 83.96160707373338 86.99413027207031 C 0.0 **** -0.24
36297 H 85.59763878995453 83.47625710841 87.18763420174946 H 0.0 **** 0.06
36298 H 84.54289430095876 84.83889475736657 87.63491502752004 H 0.0 **** 0.06
36299 H 83.82961151998315 83.2645676564947 87.20447637759125 H 0.0 **** 0.06
36300 H 84.59483635987652 84.26768249364909 85.94893308679917 H 0.0 **** 0.06
36301 C 45.796030066650175 76.80019304814809 90.25272748251024 C 0.0 **** -0.24
36302 H 45.286648865117854 75.8858026198846 89.95001673972834 H 0.0 **** 0.06
36303 H 46.56197700997967 77.05006848077022 89.51781014481776 H 0.0 **** 0.06
36304 H 46.26233244735731 76.65223939731348 91.22733804630265 H 0.0 **** 0.06
36305 H 45.07379907777921 77.61446705707297 90.31690039763933 H 0.0 **** 0.06
36306 C 131.24289680560594 67.85309916426539 42.788638488532214 C 0.0 **** -0.24
36307 H 131.84209250704998 66.94317034637774 42.74625942848648 H 0.0 **** 0.06
36308 H 130.98502666618853 68.16524245269369 41.77626183570139 H 0.0 **** 0.06
36309 H 131.81434652432304 68.64219617715443 43.277568982053225 H 0.0 **** 0.06
36310 H 130.33132414431705 67.66114115908081 43.353397946603934 H 0.0 **** 0.06
36311 C 103.97388795879581 100.0393910470901 139.5814982961467 C 0.0 **** -0.24
36312 H 103.84058317189358 99.04708094359316 139.1485878371285 H 0.0 **** 0.06
36313 H 104.92436363002123 100.45571239106732 139.24821100188146 H 0.0 **** 0.06
36314 H 103.97098700504615 99.9642486397301 140.66866437219196 H 0.0 **** 0.06
36315 H 103.15944532730558 100.68777663707223 139.25987245429798 H 0.0 **** 0.06
36316 C 122.58810646069303 100.75383887307906 13.169213661928666 C 0.0 **** -0.24
36317 H 122.77404821203292 99.70896419035684 13.418750194192135 H 0.0 **** 0.06
36318 H 121.80600195631378 101.14859065909697 13.8184682417292 H 0.0 **** 0.06
36319 H 122.26869867715705 100.82631537607254 12.129421502126618 H 0.0 **** 0.06
36320 H 123.5023829780434 101.3296896370874 13.310533216538253 H 0.0 **** 0.06
36321 C 130.60018452399393 61.46969247940807 5.253900394244283 C 0.0 **** -0.24
36322 H 130.50179550628252 60.466331693766435 4.839120154963723 H 0.0 **** 0.06
36323 H 129.97098430362843 61.55910745187062 6.14033652263754 H 0.0 **** 0.06
36324 H 130.2869917376295 62.20235671282195 4.510570543827782 H 0.0 **** 0.06
36325 H 131.63992284259268 61.64917663935131 5.526399084901925 H 0.0 **** 0.06
36326 C 42.11292438384032 80.37704367021178 119.12644232972501 C 0.0 **** -0.24
36327 H 41.89616165113159 81.24383626365176 118.50249490142882 H 0.0 **** 0.06
36328 H 42.94426225481723 80.60922206249069 119.79271590107878 H 0.0 **** 0.06
36329 H 42.37985413718698 79.53147489348254 118.49247399512608 H 0.0 **** 0.06
36330 H 41.232571629544395 80.12523055865893 119.7170132755687 H 0.0 **** 0.06
36331 C 2.509676011757506 63.92156475688418 142.88621664531115 C 0.0 **** -0.24
36332 H 2.6548493808417106 64.99806777867141 142.97856841391626 H 0.0 **** 0.06
36333 H 1.916429820308167 63.711627060684705 141.99581558499867 H 0.0 **** 0.06
36334 H 1.9886893975325393 63.54829380546143 143.7677849257748 H 0.0 **** 0.06
36335 H 3.478906578468468 63.4301920109459 142.80118824556655 H 0.0 **** 0.06
36336 C 10.34463803118581 11.926285722642547 60.501935703485884 C 0.0 **** -0.24
36337 H 11.077204873023675 11.125528057235812 60.39720312976203 H 0.0 **** 0.06
36338 H 10.501579741612886 12.666979620952333 59.71791291153441 H 0.0 **** 0.06
36339 H 10.461650135018516 12.399779094728018 61.47755405160454 H 0.0 **** 0.06
36340 H 9.339666755380335 11.51289352919872 60.41764145890863 H 0.0 **** 0.06
36341 C 38.67966694541427 135.16170941797182 104.61278295232343 C 0.0 **** -0.24
36342 H 38.84291485010064 136.0483730153717 104.00075382516702 H 0.0 **** 0.06
36343 H 37.62224588333453 134.89538373389743 104.59102779710582 H 0.0 **** 0.06
36344 H 38.982383864269735 135.3676151472171 105.63916600346901 H 0.0 **** 0.06
36345 H 39.271117736523394 134.33429499302758 104.21827907007241 H 0.0 **** 0.06
36346 C 26.499293536488125 82.39784582704758 57.00640634289172 C 0.0 **** -0.24
36347 H 26.24270993494062 82.64043258912362 55.97522526712572 H 0.0 **** 0.06
36348 H 27.17175504056604 81.54042924851046 57.021579041137926 H 0.0 **** 0.06
36349 H 25.59107250769989 82.15802745459605 57.55898447389549 H 0.0 **** 0.06
36350 H 26.99096974058412 83.25373901752596 57.469763971949334 H 0.0 **** 0.06
36351 C 77.64096538946092 145.51232624088215 30.024155708685996 C 0.0 **** -0.24
36352 H 76.92405631046903 144.81086236657015 30.44923292602246 H 0.0 **** 0.06
36353 H 78.1968136629055 145.02388812088407 29.223801539321727 H 0.0 **** 0.06
36354 H 78.33287846908375 145.83971612233523 30.801159647131115 H 0.0 **** 0.06
36355 H 77.10966805100277 146.3759910096319 29.623116755300316 H 0.0 **** 0.06
36356 C 135.65892477698264 118.96301483577393 130.56740203640672 C 0.0 **** -0.24
36357 H 136.005973407563 118.21303982592998 129.85631086865322 H 0.0 **** 0.06
36358 H 136.44767431492716 119.69638256158113 130.73543431110622 H 0.0 **** 0.06
36359 H 135.405130913473 118.47820297868996 131.5102673765466 H 0.0 **** 0.06
36360 H 134.7765041117926 119.46229974152824 130.16646778362067 H 0.0 **** 0.06
36361 C 72.25090179869257 126.47701004435261 111.93420974490088 C 0.0 **** -0.24
36362 H 72.56435577667634 126.67117931565464 110.90842136598367 H 0.0 **** 0.06
36363 H 73.10009520636405 126.61109665153884 112.60448524542322 H 0.0 **** 0.06
36364 H 71.88276596383231 125.45374590339323 112.0143249186987 H 0.0 **** 0.06
36365 H 71.45691777757756 127.17087506276677 112.2089634053791 H 0.0 **** 0.06
36366 C 103.61486956007265 77.81169654045398 144.45793521135775 C 0.0 **** -0.24
36367 H 102.89211026472026 78.37384678533256 143.86761161703532 H 0.0 **** 0.06
36368 H 103.83467803180896 78.35590381187563 145.37757137304462 H 0.0 **** 0.06
36369 H 104.53215343942256 77.683078541413 143.8839199129944 H 0.0 **** 0.06
36370 H 103.2001402627057 76.83401801434174 144.70459739314083 H 0.0 **** 0.06
36371 C 72.99138618543631 89.75695025532612 144.88346306635802 C 0.0 **** -0.24
36372 H 72.46724582612543 89.5271571614541 145.81079142587922 H 0.0 **** 0.06
36373 H 72.63148250701477 90.70774865366295 144.48809776532258 H 0.0 **** 0.06
36374 H 72.8040308773978 88.96608837773374 144.15620146593054 H 0.0 **** 0.06
36375 H 74.06147877915153 89.82491467553233 145.07791755943938 H 0.0 **** 0.06
36376 C 12.559116324579946 29.37202943997454 82.73211587358344 C 0.0 **** -0.24
36377 H 13.118791068124636 30.13806093301855 83.26820429930763 H 0.0 **** 0.06
36378 H 12.376686011294368 28.52510623720076 83.39392867614373 H 0.0 **** 0.06
36379 H 13.134421620831546 29.040675332215017 81.86789012276137 H 0.0 **** 0.06
36380 H 11.606566598069065 29.784275257463833 82.39844039612117 H 0.0 **** 0.06
36381 C 145.57838623208238 52.90115611397793 82.87708706981684 C 0.0 **** -0.24
36382 H 145.49569050946033 53.17233421443913 81.82497076552664 H 0.0 **** 0.06
36383 H 146.42758369641052 52.230440272012075 83.01379804783616 H 0.0 **** 0.06
36384 H 144.66372381634088 52.40043324465357 83.19644615144426 H 0.0 **** 0.06
36385 H 145.72654690611765 53.801416724806984 83.4731333144602 H 0.0 **** 0.06
36386 C 40.67288351264955 115.80763437225743 70.0727356213444 C 0.0 **** -0.24
36387 H 40.7540273594338 115.03191265617524 70.83357946396552 H 0.0 **** 0.06
36388 H 40.7839172501838 115.35950061578673 69.0844959668546 H 0.0 **** 0.06
36389 H 41.45670187241599 116.55007653976286 70.22426886176095 H 0.0 **** 0.06
36390 H 39.697170773837485 116.28829061315425 70.1465132786364 H 0.0 **** 0.06
36391 C 82.66698648867548 139.87201307779583 109.56386072327129 C 0.0 **** -0.24
36392 H 81.9130516428458 139.94669328448057 108.78026260699065 H 0.0 **** 0.06
36393 H 82.43702502549777 140.58513976088477 110.35677310483314 H 0.0 **** 0.06
36394 H 83.64806614666362 140.09658481970706 109.14631659568548 H 0.0 **** 0.06
36395 H 82.66726646552404 138.86123499449258 109.97202795835958 H 0.0 **** 0.06
36396 C 48.48526614899485 26.70973779265165 107.6892432685107 C 0.0 **** -0.24
36397 H 47.74604857185358 26.366551363872304 108.41437872471866 H 0.0 **** 0.06
36398 H 48.56995967579569 25.979674666464234 106.88453417939607 H 0.0 **** 0.06
36399 H 49.45148827662054 26.82236982134839 108.18177728333231 H 0.0 **** 0.06
36400 H 48.172812396264035 27.66916139814623 107.27801601273464 H 0.0 **** 0.06
36401 C 109.61906767429006 130.55685691270085 44.887781225709276 C 0.0 **** -0.24
36402 H 109.77771934936898 129.94513170564238 44.00013277146229 H 0.0 **** 0.06
36403 H 110.40167337622755 130.3466704419326 45.61855066373653 H 0.0 **** 0.06
36404 H 108.64581223474165 130.32453799240213 45.32071619562052 H 0.0 **** 0.06
36405 H 109.65248740343766 131.61096104629496 44.613446634607655 H 0.0 **** 0.06
36406 C 129.87031656160997 76.49254349018841 5.478330340742218 C 0.0 **** -0.24
36407 H 129.52820750340294 77.02866302920904 6.363617939619587 H 0.0 **** 0.06
36408 H 130.89403891951125 76.15295311526526 5.633516607710078 H 0.0 **** 0.06
36409 H 129.83248612323078 77.1569409933462 4.615067512233509 H 0.0 **** 0.06
36410 H 129.22423875545152 75.63241681387284 5.302878176851891 H 0.0 **** 0.06
36411 C 20.72995832360899 83.5503940497197 102.59815851718342 C 0.0 **** -0.24
36412 H 19.863504662146873 83.0729051742845 103.0562647761311 H 0.0 **** 0.06
36413 H 20.816319819298997 84.57289933383984 102.966114416697 H 0.0 **** 0.06
36414 H 20.607365068912927 83.56161521355992 101.51595622656707 H 0.0 **** 0.06
36415 H 21.6303881459607 82.99347476816857 102.85663275097369 H 0.0 **** 0.06
36416 C 62.36451375961772 124.01652388948983 143.2310629111031 C 0.0 **** -0.24
36417 H 61.901517931713755 124.13526451287092 144.20980513957937 H 0.0 **** 0.06
36418 H 62.18462750150803 124.91018192243129 142.63366928855112 H 0.0 **** 0.06
36419 H 61.93339801537991 123.15074717448951 142.72828682164658 H 0.0 **** 0.06
36420 H 63.43757866022426 123.86996502974475 143.35142938080094 H 0.0 **** 0.06
36421 C 105.23650631394123 136.02220701426367 58.510056405779565 C 0.0 **** -0.24
36422 H 105.05628932001282 136.98163490596707 58.02595742985632 H 0.0 **** 0.06
36423 H 106.04940949924655 136.1250278658649 59.2305279758875 H 0.0 **** 0.06
36424 H 105.50954684646872 135.28170021472707 57.75789587261673 H 0.0 **** 0.06
36425 H 104.33193664597991 135.6998171825641 59.02633582226136 H 0.0 **** 0.06
36426 C 31.738737133065428 123.58605962596508 128.2342479753044 C 0.0 **** -0.24
36427 H 30.894907050064518 123.7008047069439 127.55292109965757 H 0.0 **** 0.06
36428 H 31.610445095521953 122.67476600316746 128.81845426366556 H 0.0 **** 0.06
36429 H 31.784072900268967 124.44492544392563 128.9040898104496 H 0.0 **** 0.06
36430 H 32.66219258922334 123.52318962637543 127.66026174182633 H 0.0 **** 0.06
36431 C 29.57965894769695 125.5213033399501 143.3674151035705 C 0.0 **** -0.24
36432 H 30.297162466868606 126.33364896269288 143.48397493529288 H 0.0 **** 0.06
36433 H 28.92538215795834 125.73387820677796 142.52140638972529 H 0.0 **** 0.06
36434 H 28.982825894105133 125.43125849500879 144.27514696754494 H 0.0 **** 0.06
36435 H 30.11280290308894 124.58774088694042 143.188883464812 H 0.0 **** 0.06
36436 C 93.11179610471967 70.62796134013402 19.84583998903986 C 0.0 **** -0.24
36437 H 93.13263408840379 70.55131104261417 18.75848704243387 H 0.0 **** 0.06
36438 H 93.38075561398962 69.66571949236331 20.2816717333736 H 0.0 **** 0.06
36439 H 92.10931515715154 70.90747587256413 20.170726886555116 H 0.0 **** 0.06
36440 H 93.82438202439822 71.38703578030803 20.170045541987548 H 0.0 **** 0.06
36441 C 42.55280620974605 33.826213886735324 2.4578872995224117 C 0.0 **** -0.24
36442 H 41.85480634945968 34.3161421637081 3.1374573225757274 H 0.0 **** 0.06
36443 H 42.18109319950226 33.90580728860579 1.4365356432803935 H 0.0 **** 0.06
36444 H 42.6474328000332 32.77567417177002 2.7306526995943727 H 0.0 **** 0.06
36445 H 43.527341915835194 34.309049683574386 2.5294319809570425 H 0.0 **** 0.06
36446 C 47.79591774612986 114.98121353139688 48.79027150490202 C 0.0 **** -0.24
36447 H 47.37403148110545 114.08690970158018 48.33071457345471 H 0.0 **** 0.06
36448 H 47.57579579027207 114.97918707632697 49.85783888773024 H 0.0 **** 0.06
36449 H 47.35914774390574 115.86715457277658 48.32894911309354 H 0.0 **** 0.06
36450 H 48.87605242712233 114.98923669470396 48.64233361348947 H 0.0 **** 0.06
36451 C 123.86898773925878 110.61858547248664 56.38976728447628 C 0.0 **** -0.24
36452 H 122.93260145572751 111.14058701506747 56.58616485099046 H 0.0 **** 0.06
36453 H 124.39737208139456 110.45632489882195 57.32990049044676 H 0.0 **** 0.06
36454 H 124.48786276166507 111.21996954665752 55.72415494894477 H 0.0 **** 0.06
36455 H 123.6571255109643 109.65740080005656 55.92108900244739 H 0.0 **** 0.06
36456 C 18.542356560825844 74.78434872199661 107.96681499949926 C 0.0 **** -0.24
36457 H 19.526242253128736 74.31771934005124 108.02425107880475 H 0.0 **** 0.06
36458 H 18.658348868874135 75.8547340585511 107.7962221509224 H 0.0 **** 0.06
36459 H 18.008438715341562 74.62024918734623 108.90326842071028 H 0.0 **** 0.06
36460 H 17.979842011742768 74.3438226448738 107.14468971801631 H 0.0 **** 0.06
36461 C 127.20094910773167 15.53189760654891 15.849427841249621 C 0.0 **** -0.24
36462 H 126.32283965672127 15.217994677631793 15.284366185509668 H 0.0 **** 0.06
36463 H 127.40178140456055 14.807815522288536 16.63898240987902 H 0.0 **** 0.06
36464 H 127.0176548705319 16.51161412257227 16.2905793631042 H 0.0 **** 0.06
36465 H 128.06034589473168 15.589473382984238 15.18093018387583 H 0.0 **** 0.06
36466 C 115.52494175651198 16.491249129623043 65.81192848206169 C 0.0 **** -0.24
36467 H 116.45422019854321 16.411996247170066 65.24788464591742 H 0.0 **** 0.06
36468 H 114.72652213659514 16.831824218648535 65.15121318859809 H 0.0 **** 0.06
36469 H 115.65352662801526 17.206053118933312 66.62464927013922 H 0.0 **** 0.06
36470 H 115.26484511060302 15.516356236034426 66.22373724545614 H 0.0 **** 0.06
36471 C 68.93051939374612 62.04757349632973 8.659359324292723 C 0.0 **** -0.24
36472 H 68.60535229871286 62.58442783142283 7.768586261193917 H 0.0 **** 0.06
36473 H 68.99045158128641 60.98077257817732 8.438671923384618 H 0.0 **** 0.06
36474 H 68.21402185094001 62.2120623655174 9.464952047936151 H 0.0 **** 0.06
36475 H 69.91076058023759 62.41111991873322 8.965578290044135 H 0.0 **** 0.06
36476 C 22.79737424603877 142.13106547529947 77.04451248708804 C 0.0 **** -0.24
36477 H 23.622443280791742 142.8224936855541 77.21366326226627 H 0.0 **** 0.06
36478 H 22.31914602708997 142.36144427915588 76.09224713810127 H 0.0 **** 0.06
36479 H 22.069529398334794 142.23008107071465 77.84976318164885 H 0.0 **** 0.06
36480 H 23.17799908008743 141.10939419317654 77.02200757439542 H 0.0 **** 0.06
36481 C 105.27863212732163 107.0003482966874 144.35589363440928 C 0.0 **** -0.24
36482 H 104.81743956425456 107.85450448255315 144.85045452307077 H 0.0 **** 0.06
36483 H 104.745651723588 106.78418587543078 143.4300067128658 H 0.0 **** 0.06
36484 H 105.23368486928089 106.13227478488957 145.012750522793 H 0.0 **** 0.06
36485 H 106.320508949132 107.23159980331005 144.13019382294502 H 0.0 **** 0.06
36486 C 30.904969046784373 118.74846822100997 50.60866781058321 C 0.0 **** -0.24
36487 H 31.567301322146307 119.61209871838682 50.55597831285371 H 0.0 **** 0.06
36488 H 30.608008774198993 118.58268235026682 51.644683050389105 H 0.0 **** 0.06
36489 H 31.426975951147114 117.86804387204731 50.23515795491406 H 0.0 **** 0.06
36490 H 30.018776932947162 118.9318877451735 50.00147616648064 H 0.0 **** 0.06
36491 C 5.111246849829268 34.09301938049173 21.648705756006684 C 0.0 **** -0.24
36492 H 4.956771111202908 34.95782308561873 22.293851234189127 H 0.0 **** 0.06
36493 H 5.649685285253653 34.400229169977564 20.75129606138487 H 0.0 **** 0.06
36494 H 4.146803866765442 33.671835297648244 21.367964734466533 H 0.0 **** 0.06
36495 H 5.694486244662134 33.34216500388288 22.18288874175647 H 0.0 **** 0.06
36496 C 117.8285544407593 72.19434667477844 7.834059701311311 C 0.0 **** -0.24
36497 H 118.62730700712255 71.48120829434234 7.6283416442777074 H 0.0 **** 0.06
36498 H 117.28878222419483 72.40955876463264 6.911363842484775 H 0.0 **** 0.06
36499 H 118.25717331848485 73.11554254917579 8.228024026861409 H 0.0 **** 0.06
36500 H 117.14206031386264 71.77001590154825 8.565929946206879 H 0.0 **** 0.06
36501 C 18.852397109306793 89.20156396483931 12.809151981487574 C 0.0 **** -0.24
36502 H 19.556735091557556 88.6778759847186 13.454929629493613 H 0.0 **** 0.06
36503 H 19.285639014526993 89.3135551522741 11.815497967510588 H 0.0 **** 0.06
36504 H 18.639307426436545 90.18522674410777 13.226645915755206 H 0.0 **** 0.06
36505 H 17.92723740916736 88.6283611104405 12.739682808246492 H 0.0 **** 0.06
36506 C 123.60799689449777 109.3192134286367 103.70639718364134 C 0.0 **** -0.24
36507 H 124.50569843457036 108.98260043625767 103.18761346769253 H 0.0 **** 0.06
36508 H 123.10270487773698 108.46227175710108 104.15155876582833 H 0.0 **** 0.06
36509 H 122.93993370733729 109.80602950616525 102.99569499997584 H 0.0 **** 0.06
36510 H 123.88399641321917 110.02614283367562 104.48852054876151 H 0.0 **** 0.06
36511 C 133.30746240640119 80.15257297222286 88.20520993232097 C 0.0 **** -0.24
36512 H 132.90519282259788 79.16767985627484 87.96633828656215 H 0.0 **** 0.06
36513 H 134.1221012820304 80.38777966283581 87.52105339720879 H 0.0 **** 0.06
36514 H 133.68149250511723 80.15316475640464 89.22918456358425 H 0.0 **** 0.06
36515 H 132.52100888366988 80.90008851100072 88.1058457978904 H 0.0 **** 0.06
36516 C 52.473633765203544 52.93316128779216 83.33339038402801 C 0.0 **** -0.24
36517 H 52.79564895731846 53.0416169310505 82.29715993901614 H 0.0 **** 0.06
36518 H 51.4269888867733 52.63086708712834 83.35850181263358 H 0.0 **** 0.06
36519 H 52.59069305211972 53.88535460383238 83.8503128985418 H 0.0 **** 0.06
36520 H 53.08343006124278 52.175664162671595 83.82551076315823 H 0.0 **** 0.06
36521 C 85.9283963079878 107.85125092961168 27.743320580398716 C 0.0 **** -0.24
36522 H 86.18764372069903 108.32617976780274 26.797448366414784 H 0.0 **** 0.06
36523 H 86.84035589089059 107.61977400521816 28.29473159010186 H 0.0 **** 0.06
36524 H 85.37863358218279 106.93102176584854 27.548743921236536 H 0.0 **** 0.06
36525 H 85.30922816115127 108.52847379261028 28.331570436652925 H 0.0 **** 0.06
36526 C 6.224364874709664 46.2734790733881 106.47988231454461 C 0.0 **** -0.24
36527 H 5.681680092553961 46.783123646377476 107.27565772675395 H 0.0 **** 0.06
36528 H 5.5635469352414475 45.55793056726134 105.9914031975759 H 0.0 **** 0.06
36529 H 7.080689325040993 45.749139787627385 106.90282155586696 H 0.0 **** 0.06
36530 H 6.571361394776289 47.00559713452405 105.7508518304637 H 0.0 **** 0.06
36531 C 35.92850202343801 102.55642201624093 114.82414002901572 C 0.0 **** -0.24
36532 H 36.511315065795955 102.35152151960065 113.92583848591636 H 0.0 **** 0.06
36533 H 36.446071930187934 103.30114296176512 115.42999567563118 H 0.0 **** 0.06
36534 H 35.81190656371312 101.63776583010204 115.39833700617442 H 0.0 **** 0.06
36535 H 34.94746332993817 102.936077040246 114.54150958291484 H 0.0 **** 0.06
36536 C 43.86743170703349 11.498554300489118 22.37039466436414 C 0.0 **** -0.24
36537 H 44.309030230868615 10.866438493640018 21.599906992485273 H 0.0 **** 0.06
36538 H 43.224314439056116 12.244394587536078 21.903902096739756 H 0.0 **** 0.06
36539 H 44.659834897739955 11.99881627685481 22.927009459041813 H 0.0 **** 0.06
36540 H 43.278547551319576 10.883258489323275 23.050226546511666 H 0.0 **** 0.06
36541 C 49.39970586884127 35.229028202436126 107.38430616944716 C 0.0 **** -0.24
36542 H 49.50108885033622 35.33428801218597 106.3049537321847 H 0.0 **** 0.06
36543 H 48.499736772411964 35.74715556463484 107.71710731803516 H 0.0 **** 0.06
36544 H 50.271474653387955 35.66200170878806 107.87509536559706 H 0.0 **** 0.06
36545 H 49.32600561787656 34.17238806394021 107.64135437973728 H 0.0 **** 0.06
36546 C 144.35851577111453 57.11304449686938 73.16036138416476 C 0.0 **** -0.24
36547 H 144.63664790201034 58.16319177919155 73.07077286049315 H 0.0 **** 0.06
36548 H 143.29545181943217 56.999337064966454 72.94395521969088 H 0.0 **** 0.06
36549 H 144.56237122009315 56.7678172192071 74.17337714333388 H 0.0 **** 0.06
36550 H 144.93852660333295 56.52201134534096 72.45114197388219 H 0.0 **** 0.06
36551 C 20.383777786249738 126.76595093846663 16.517661410757825 C 0.0 **** -0.24
36552 H 20.105614363610556 127.2038345378948 15.55873702159576 H 0.0 **** 0.06
36553 H 20.607689622565374 125.70725649468187 16.382652120203204 H 0.0 **** 0.06
36554 H 19.55783409205131 126.87623307712386 17.219980952202178 H 0.0 **** 0.06
36555 H 21.263514374185945 127.27651381577698 16.908387586702617 H 0.0 **** 0.06
36556 C 131.9244829095096 10.970157158353885 140.5249449011846 C 0.0 **** -0.24
36557 H 131.15817218159162 11.391659307963351 139.87482362125414 H 0.0 **** 0.06
36558 H 131.97999744707852 9.892204261556401 140.36869623746384 H 0.0 **** 0.06
36559 H 131.67071020929558 11.174203181631697 141.5650321672179 H 0.0 **** 0.06
36560 H 132.88786189914492 11.42185258791747 140.290942754863 H 0.0 **** 0.06
36561 C 52.72367103807143 144.48788727091468 47.794224407186476 C 0.0 **** -0.24
36562 H 52.958494497654755 143.61859474514281 48.40779535500505 H 0.0 **** 0.06
36563 H 53.06254517398162 145.39211984425683 48.300550094734945 H 0.0 **** 0.06
36564 H 51.646232210534365 144.54183585322932 47.637964930183315 H 0.0 **** 0.06
36565 H 53.22639315001446 144.39871081648045 46.831524606072136 H 0.0 **** 0.06
36566 C 45.81071866057769 55.50201656493746 111.17731617774548 C 0.0 **** -0.24
36567 H 46.139685738621296 55.35665509985043 110.14855401625316 H 0.0 **** 0.06
36568 H 44.89881807125582 56.09973927884553 111.1855504880263 H 0.0 **** 0.06
36569 H 46.58952848255498 56.01730868004094 111.73850076905781 H 0.0 **** 0.06
36570 H 45.61431100214995 54.53206596635269 111.63599562698023 H 0.0 **** 0.06
36571 C 116.15201896511421 56.323586740292996 58.42502569834295 C 0.0 **** -0.24
36572 H 117.23988084133104 56.26343670024275 58.37200226276741 H 0.0 **** 0.06
36573 H 115.71668238018957 55.4346794648977 57.96632329321572 H 0.0 **** 0.06
36574 H 115.81148331008224 57.212164012065244 57.89315841235437 H 0.0 **** 0.06
36575 H 115.8427158712568 56.382734098935856 59.46853615903892 H 0.0 **** 0.06
36576 C 40.28804517424666 17.947744751497794 13.534857276106749 C 0.0 **** -0.24
36577 H 40.71800663665296 18.84929505384838 13.098924859452922 H 0.0 **** 0.06
36578 H 39.20313860084827 18.048335574866826 13.580761085472744 H 0.0 **** 0.06
36579 H 40.68338943402459 17.807496235671948 14.541003972684734 H 0.0 **** 0.06
36580 H 40.54731486440227 17.08675701376842 12.918471637939575 H 0.0 **** 0.06
36581 C 34.60437649022464 19.614794152110505 114.57265531172351 C 0.0 **** -0.24
36582 H 34.21838976078408 19.946209533459196 115.53677304142224 H 0.0 **** 0.06
36583 H 35.11518175702031 18.660415499108865 114.69493450798296 H 0.0 **** 0.06
36584 H 35.304406783086534 20.355862252907343 114.18790536883944 H 0.0 **** 0.06
36585 H 33.77777162463855 19.498056451338016 113.87122631536556 H 0.0 **** 0.06
36586 C 126.2417582167158 84.66882846677922 135.93294651873603 C 0.0 **** -0.24
36587 H 125.94887550769184 85.61175316902795 135.47149380285714 H 0.0 **** 0.06
36588 H 127.0565395693333 84.22326485403119 135.3621555631145 H 0.0 **** 0.06
36589 H 125.3897247392562 83.98958096080116 135.94282812904387 H 0.0 **** 0.06
36590 H 126.5725917267072 84.85258465177344 136.95543503978104 H 0.0 **** 0.06
36591 C 36.867940581656256 141.972903679546 68.66185425309968 C 0.0 **** -0.24
36592 H 37.93486992922479 142.09097143474844 68.851260354137 H 0.0 **** 0.06
36593 H 36.72290437582129 141.39360691559227 67.7493353724812 H 0.0 **** 0.06
36594 H 36.40781920356582 142.95366303132244 68.54769540078328 H 0.0 **** 0.06
36595 H 36.407017719365314 141.45024214636283 69.50069928340713 H 0.0 **** 0.06
36596 C 72.98645332945256 45.746953317828726 121.19308917793994 C 0.0 **** -0.24
36597 H 73.42495934279 46.74538415084855 121.17947674637348 H 0.0 **** 0.06
36598 H 71.91900917257593 45.82208404286533 121.40175461654307 H 0.0 **** 0.06
36599 H 73.46764893623865 45.149226907935144 121.96730802904152 H 0.0 **** 0.06
36600 H 73.1348339332836 45.2722780519361 120.22270032626112 H 0.0 **** 0.06
36601 C 142.59707276201672 53.23777532881965 145.38966829355996 C 0.0 **** -0.24
36602 H 142.181333635114 54.22590887290309 145.19003107883228 H 0.0 **** 0.06
36603 H 142.1383682001237 52.826248651936965 146.28865595118927 H 0.0 **** 0.06
36604 H 143.67368973457278 53.31997039576967 145.5363302511394 H 0.0 **** 0.06
36605 H 142.3943143745756 52.58088322718643 144.54375771727243 H 0.0 **** 0.06
36606 C 126.71442676842679 64.63681580864063 29.94027125019761 C 0.0 **** -0.24
36607 H 126.23377308216067 63.72742769003338 29.578177029321438 H 0.0 **** 0.06
36608 H 125.96169888394857 65.40929471288831 30.094163819703112 H 0.0 **** 0.06
36609 H 127.44249101769384 64.9794636642697 29.204762713247845 H 0.0 **** 0.06
36610 H 127.2203160041396 64.42887520901132 30.882300771107595 H 0.0 **** 0.06
36611 C 97.46585757826833 11.572690477102505 76.06056006759798 C 0.0 **** -0.24
36612 H 97.37461410044875 10.503282289215676 76.24883279912638 H 0.0 **** 0.06
36613 H 98.51765746856438 11.828345026984643 75.92302917819183 H 0.0 **** 0.06
36614 H 97.06568558293009 12.126283696281668 76.90882814638351 H 0.0 **** 0.06
36615 H 96.90812649389385 11.831675957175051 75.16078874186385 H 0.0 **** 0.06
36616 C 1.6140630771186721 59.01257933693202 43.36457360374047 C 0.0 **** -0.24
36617 H 2.081081696128688 58.04855470283579 43.160580827555975 H 0.0 **** 0.06
36618 H 2.3856821026910424 59.75041649276827 43.58202995087372 H 0.0 **** 0.06
36619 H 0.9476972738359173 58.918224541836906 44.22283623778297 H 0.0 **** 0.06
36620 H 1.0419771800188116 59.32952346737389 42.492986539668905 H 0.0 **** 0.06
36621 C 13.274360177479195 120.4072374616931 129.6760455856322 C 0.0 **** -0.24
36622 H 12.950200997612512 121.43305087007893 129.49951628890778 H 0.0 **** 0.06
36623 H 12.593212461084363 119.9271016919973 130.37994501664446 H 0.0 **** 0.06
36624 H 14.281799065317102 120.41181428279255 130.09122121406347 H 0.0 **** 0.06
36625 H 13.271234469315402 119.85864303008613 128.73462100630027 H 0.0 **** 0.06
36626 C 39.78667725838906 32.25680371741288 14.803694462551732 C 0.0 **** -0.24
36627 H 40.51405936843716 31.77953302382329 15.460533755310394 H 0.0 **** 0.06
36628 H 40.287001803653624 32.60063944535696 13.898012250714778 H 0.0 **** 0.06
36629 H 39.337252041116415 33.10649118040729 15.316746160898056 H 0.0 **** 0.06
36630 H 39.0102317381818 31.538929730916863 14.539506677307784 H 0.0 **** 0.06
36631 C 110.95279183915348 46.88622363962895 97.5929800874967 C 0.0 **** -0.24
36632 H 110.61940916104358 46.757857059904836 98.62298005152411 H 0.0 **** 0.06
36633 H 111.90371267040338 47.41999059869653 97.5837957364347 H 0.0 **** 0.06
36634 H 110.20848744494224 47.45761347455084 97.03821389550086 H 0.0 **** 0.06
36635 H 111.08014749832516 45.90840985885575 97.12770847451827 H 0.0 **** 0.06
36636 C 24.684157173187515 116.9266571327684 0.6241620315935847 C 0.0 **** -0.24
36637 H 25.033478414081202 116.20146908387419 -0.1104391099906934 H 0.0 **** 0.06
36638 H 23.89455766232848 116.47890945510646 1.228866580945379 H 0.0 **** 0.06
36639 H 24.294279032712012 117.80506506898733 0.11029491795287072 H 0.0 **** 0.06
36640 H 25.512953598198635 117.21918606131875 1.268319759396121 H 0.0 **** 0.06
36641 C 105.13066138671846 120.47692633966871 107.49350371830417 C 0.0 **** -0.24
36642 H 104.11423945026918 120.61312657896168 107.12324858091768 H 0.0 **** 0.06
36643 H 105.81772996984817 121.07940808085162 106.8984974555292 H 0.0 **** 0.06
36644 H 105.40725624356081 119.42589994910891 107.41564699398538 H 0.0 **** 0.06
36645 H 105.18180002596765 120.79105569105603 108.53618559836156 H 0.0 **** 0.06
36646 C 91.6198404339675 75.32645549385032 77.90342457534723 C 0.0 **** -0.24
36647 H 90.9052043409171 74.51422742679776 77.76806303737584 H 0.0 **** 0.06
36648 H 91.64624797101453 75.94004023035936 77.00224348237776 H 0.0 **** 0.06
36649 H 92.60990348576041 74.91138281050834 78.0891654424733 H 0.0 **** 0.06
36650 H 91.31706900636145 75.93959759257106 78.75203703739058 H 0.0 **** 0.06
36651 C 62.856027237079985 131.6663668143734 11.977604868489863 C 0.0 **** -0.24
36652 H 63.30775325956469 131.99982539431693 12.912158182121459 H 0.0 **** 0.06
36653 H 61.77530172866963 131.79838920542937 12.030438228542181 H 0.0 **** 0.06
36654 H 63.08786256579728 130.61359370800218 11.818171381169236 H 0.0 **** 0.06
36655 H 63.25437557659308 132.25582179697517 11.15186985358747 H 0.0 **** 0.06
36656 C 126.90190627215833 19.201690803824732 129.80641666241056 C 0.0 **** -0.24
36657 H 126.0298224440098 19.550555835951826 130.35890544538964 H 0.0 **** 0.06
36658 H 126.59279623771012 18.461029406798474 129.0690635817524 H 0.0 **** 0.06
36659 H 127.61352346288099 18.751069912509195 130.49917545022996 H 0.0 **** 0.06
36660 H 127.37222260011771 20.045149419608038 129.30061232566578 H 0.0 **** 0.06
36661 C 52.21549735573117 97.87441628295278 88.59087719890088 C 0.0 **** -0.24
36662 H 53.125044783337756 97.31861875104343 88.36790100973481 H 0.0 **** 0.06
36663 H 51.7245513060449 97.43453548950973 89.4593924794717 H 0.0 **** 0.06
36664 H 51.544291905913624 97.83208937472907 87.73335194913645 H 0.0 **** 0.06
36665 H 52.466818027034606 98.91355831377948 88.80310974308271 H 0.0 **** 0.06
36666 C 1.5210643375845052 8.39880260873872 102.42673992054588 C 0.0 **** -0.24
36667 H 1.7588824533542038 7.361698517218457 102.18903513024793 H 0.0 **** 0.06
36668 H 2.319308913837375 8.82261119392848 103.03752126676295 H 0.0 **** 0.06
36669 H 0.581775735515464 8.438858847233377 102.9768001384524 H 0.0 **** 0.06
36670 H 1.4271236638520008 8.971119235798938 101.5039508242352 H 0.0 **** 0.06
36671 C 88.8116104004955 69.2385038540526 60.73098725722724 C 0.0 **** -0.24
36672 H 88.79797189802377 69.08163126759078 61.80960437371857 H 0.0 **** 0.06
36673 H 89.82181831655305 69.08327396703496 60.354560017496794 H 0.0 **** 0.06
36674 H 88.49234881503826 70.25756733037 60.50904438960174 H 0.0 **** 0.06
36675 H 88.13188960122268 68.53291347671862 60.25325014202042 H 0.0 **** 0.06
36676 C 65.98893530811854 120.30688708807294 130.40132636844587 C 0.0 **** -0.24
36677 H 65.00096235520193 120.73161290264643 130.2227421164279 H 0.0 **** 0.06
36678 H 66.75274170670654 121.03090680413344 130.1168898194342 H 0.0 **** 0.06
36679 H 66.10723964984516 119.40009867227404 129.80798940078657 H 0.0 **** 0.06
36680 H 66.09380739009798 120.06479693220773 131.4590990832401 H 0.0 **** 0.06
36681 C 13.032834293166957 92.92554366449247 20.676080189085575 C 0.0 **** -0.24
36682 H 13.139312038602725 93.07806100272482 19.602435083287496 H 0.0 **** 0.06
36683 H 12.79578699235924 91.87945044033945 20.87183634214204 H 0.0 **** 0.06
36684 H 12.230065829221758 93.55695367454027 21.05453231555601 H 0.0 **** 0.06
36685 H 13.967342380171146 93.18618853005918 21.17436910958262 H 0.0 **** 0.06
36686 C 124.21888183629817 41.84096010779959 31.720226390036103 C 0.0 **** -0.24
36687 H 123.6061900457199 42.73938432863477 31.650623552446156 H 0.0 **** 0.06
36688 H 124.00493879654279 41.18860015589422 30.874046306871882 H 0.0 **** 0.06
36689 H 123.99140796702426 41.31781963207757 32.649593176259415 H 0.0 **** 0.06
36690 H 125.2733293264152 42.118207994605854 31.708606174660574 H 0.0 **** 0.06
36691 C 57.17178517816126 46.711538002449416 116.12634199762135 C 0.0 **** -0.24
36692 H 57.583957631330975 46.145243735481145 116.96105304595113 H 0.0 **** 0.06
36693 H 57.84364667506452 47.532331373248326 115.87631350620882 H 0.0 **** 0.06
36694 H 56.1969225220779 47.111190735015555 116.40449009284168 H 0.0 **** 0.06
36695 H 57.06180691411265 46.05459395255683 115.26276788313857 H 0.0 **** 0.06
36696 C 42.31138833096901 76.68065450191361 10.751818679246696 C 0.0 **** -0.24
36697 H 42.82824061743466 75.74539211802437 10.538237650102872 H 0.0 **** 0.06
36698 H 42.5664953816116 77.01554329248987 11.757142397509199 H 0.0 **** 0.06
36699 H 41.23479399661407 76.52404337703774 10.683280376238713 H 0.0 **** 0.06
36700 H 42.61453331631628 77.43676641160349 10.028479382391538 H 0.0 **** 0.06
36701 C 3.5869492758792703 13.411436479657006 32.0261834044756 C 0.0 **** -0.24
36702 H 4.1263245602153305 13.859905943075482 31.191137062002383 H 0.0 **** 0.06
36703 H 4.262622821363603 13.29683651334004 32.87460373925546 H 0.0 **** 0.06
36704 H 3.20662482497017 12.433951657588537 31.72930356680547 H 0.0 **** 0.06
36705 H 2.754778030676011 14.055291679797996 32.30758581249199 H 0.0 **** 0.06
36706 C 14.279338870123077 106.68322704042724 117.67231033095534 C 0.0 **** -0.24
36707 H 13.259388752523172 106.90889514122703 117.36041679180225 H 0.0 **** 0.06
36708 H 14.280907723109294 105.77968694113109 118.28267232206603 H 0.0 **** 0.06
36709 H 14.672643329595637 107.5163271827894 118.25553643298225 H 0.0 **** 0.06
36710 H 14.902772200781122 106.52861112970236 116.79232587179165 H 0.0 **** 0.06
36711 C 27.908854058810107 52.670279465354895 48.468277748653676 C 0.0 **** -0.24
36712 H 28.498107676184304 53.56430791092947 48.26431890600965 H 0.0 **** 0.06
36713 H 28.46425933340025 52.015572740306695 49.14006714667738 H 0.0 **** 0.06
36714 H 27.709293211309273 52.146298394860594 47.53375263634388 H 0.0 **** 0.06
36715 H 26.966088318577164 52.95535861234961 48.93435231403244 H 0.0 **** 0.06
36716 C 86.63338560626781 87.30843881835403 94.42502749764004 C 0.0 **** -0.24
36717 H 86.72353716672976 86.79554959540664 95.38276558945715 H 0.0 **** 0.06
36718 H 87.23843532704713 86.79392660409209 93.67809648349117 H 0.0 **** 0.06
36719 H 86.98174315664414 88.33628226787225 94.5301977909364 H 0.0 **** 0.06
36720 H 85.59039645421345 87.30892791219034 94.10994934517227 H 0.0 **** 0.06
36721 C 77.69448368539864 141.05963992516172 79.5547129741266 C 0.0 **** -0.24
36722 H 77.57590722661926 140.00274915671662 79.3132124976353 H 0.0 **** 0.06
36723 H 76.71262802638174 141.5149156709462 79.68009363467341 H 0.0 **** 0.06
36724 H 78.22706207657912 141.5590522267289 78.74594757842523 H 0.0 **** 0.06
36725 H 78.26283120150329 141.15859874264285 80.4800816542799 H 0.0 **** 0.06
36726 C 70.47420659154508 90.80750968455216 92.32905507458189 C 0.0 **** -0.24
36727 H 71.49128689204346 91.19942836869372 92.34534351215751 H 0.0 **** 0.06
36728 H 70.382005339463 90.07238508079787 91.52909465370247 H 0.0 **** 0.06
36729 H 69.77384966325636 91.62415631521802 92.15377144297362 H 0.0 **** 0.06
36730 H 70.25111723590791 90.33560664994471 93.2854449113342 H 0.0 **** 0.06
36731 C 91.2112603678556 106.7102642186943 97.99918494023606 C 0.0 **** -0.24
36732 H 90.52562356444697 107.30456572706038 98.60391035390802 H 0.0 **** 0.06
36733 H 91.07584474641442 105.65332073293729 98.2308701131542 H 0.0 **** 0.06
36734 H 92.23726264987934 107.00345188695542 98.22058093248458 H 0.0 **** 0.06
36735 H 91.0041236993725 106.8812430347063 96.94307958797941 H 0.0 **** 0.06
36736 C 7.847584513208886 13.135854810015417 76.49044524556234 C 0.0 **** -0.24
36737 H 8.063759051010862 14.190012210454483 76.31374015552026 H 0.0 **** 0.06
36738 H 8.697816394289873 12.533221566838392 76.16996459380536 H 0.0 **** 0.06
36739 H 6.962902745873038 12.8474416103478 75.9240930339923 H 0.0 **** 0.06
36740 H 7.667835804112286 12.975105859921086 77.55326416567524 H 0.0 **** 0.06
36741 C 7.4642510685933985 31.20838748519658 102.05885865123432 C 0.0 **** -0.24
36742 H 8.020539031880674 31.165288958919355 101.12220229013121 H 0.0 **** 0.06
36743 H 6.513684677033808 30.688287973122655 101.94112623365805 H 0.0 **** 0.06
36744 H 7.279287344306397 32.24984085445491 102.32388551649115 H 0.0 **** 0.06
36745 H 8.045702571085997 30.73036312243812 102.84796435186183 H 0.0 **** 0.06
36746 C 67.26989510169736 46.01784312282703 136.82699004203187 C 0.0 **** -0.24
36747 H 67.06804879631534 46.67186242884543 137.67505471826314 H 0.0 **** 0.06
36748 H 66.5434151476708 45.20524104700661 136.81385054337812 H 0.0 **** 0.06
36749 H 68.27524111979275 45.60674508764919 136.9165482359324 H 0.0 **** 0.06
36750 H 67.19307557434698 46.589679910760964 135.90194822330994 H 0.0 **** 0.06
36751 C 79.07485166940661 118.57387968660638 70.2552601110282 C 0.0 **** -0.24
36752 H 79.65199926631696 118.8479189585905 69.37246851632177 H 0.0 **** 0.06
36753 H 79.12869801161148 119.37770610495315 70.98892319574901 H 0.0 **** 0.06
36754 H 79.48263562351262 117.65965974650138 70.6862810315631 H 0.0 **** 0.06
36755 H 78.03473623484105 118.40949668177765 69.97207633936324 H 0.0 **** 0.06
36756 C 139.8138782251869 28.29602228979337 27.763529409040757 C 0.0 **** -0.24
36757 H 140.29521179708564 29.274576252404955 27.763814664427827 H 0.0 **** 0.06
36758 H 139.21421616557726 28.186562147103842 28.667499439302873 H 0.0 **** 0.06
36759 H 140.57583581536468 27.517371167072838 27.735871929655076 H 0.0 **** 0.06
36760 H 139.1714142684541 28.20731996842059 26.887715022079675 H 0.0 **** 0.06
36761 C 5.7262002659731195 128.70564615323997 118.99659636427474 C 0.0 **** -0.24
36762 H 5.791304799111913 128.7293636885632 117.90902487084291 H 0.0 **** 0.06
36763 H 6.72443709153859 128.81018551165673 119.42254670319194 H 0.0 **** 0.06
36764 H 5.293296370422411 127.75638090268797 119.31387486122834 H 0.0 **** 0.06
36765 H 5.096854905943644 129.52579399418093 119.34068035106738 H 0.0 **** 0.06
36766 C 57.565094269802245 54.14090025746685 92.77833279867215 C 0.0 **** -0.24
36767 H 56.651653833977065 53.854497153745086 93.3004034511448 H 0.0 **** 0.06
36768 H 58.3941899942449 53.52935393486794 93.13496747474717 H 0.0 **** 0.06
36769 H 57.779147484285545 55.191571004371326 92.97131997444116 H 0.0 **** 0.06
36770 H 57.434386834641884 53.98633854554453 91.70742471316751 H 0.0 **** 0.06
36771 C 57.12250102125668 121.60453939847137 68.9799330101552 C 0.0 **** -0.24
36772 H 57.30816529559061 121.07088708267425 69.91274646205868 H 0.0 **** 0.06
36773 H 57.082046173715185 122.67592849181524 69.17592715457201 H 0.0 **** 0.06
36774 H 56.17400080601951 121.27543639168859 68.55709688344159 H 0.0 **** 0.06
36775 H 57.9273338904342 121.39405545664438 68.27575018450153 H 0.0 **** 0.06
36776 C 112.75536076834884 7.218869817689978 137.47247386325787 C 0.0 **** -0.24
36777 H 111.67622512871522 7.258644473551044 137.31988880160816 H 0.0 **** 0.06
36778 H 113.07880331722784 8.112492961601646 138.0077453459108 H 0.0 **** 0.06
36779 H 113.25711572248333 7.172273365161516 136.50575588513686 H 0.0 **** 0.06
36780 H 113.00670583624638 6.334115839705873 138.05621429460425 H 0.0 **** 0.06
36781 C 98.96553464180592 123.40096990828285 80.2207951100984 C 0.0 **** -0.24
36782 H 99.74148825270741 123.95608817407485 79.69402705343357 H 0.0 **** 0.06
36783 H 99.15511169899077 123.44060563130905 81.29368441803942 H 0.0 **** 0.06
36784 H 98.97106057528728 122.36365330167989 79.8882555572302 H 0.0 **** 0.06
36785 H 97.99330492675985 123.84644276471043 80.00760679779725 H 0.0 **** 0.06
36786 C 99.77036260214257 9.280330109720637 69.6388789693472 C 0.0 **** -0.24
36787 H 100.32280572584162 9.261946148787331 70.57807783043542 H 0.0 **** 0.06
36788 H 98.9604822927667 10.007581591865005 69.70737804503355 H 0.0 **** 0.06
36789 H 99.35636705115408 8.291807701078085 69.4423974505207 H 0.0 **** 0.06
36790 H 100.4431867597263 9.560233858130573 68.82761668850992 H 0.0 **** 0.06
36791 C 29.74782206971284 57.81900528894667 47.94905060382371 C 0.0 **** -0.24
36792 H 29.48555003347095 56.818215317965496 47.6059242285087 H 0.0 **** 0.06
36793 H 28.888985963588915 58.26979174304509 48.44610492875488 H 0.0 **** 0.06
36794 H 30.036167482501313 58.431964140525 47.094217677996156 H 0.0 **** 0.06
36795 H 30.581818905389817 57.75637633690852 48.648415894605236 H 0.0 **** 0.06
36796 C 72.23665527384928 145.2778903689189 80.0857137759181 C 0.0 **** -0.24
36797 H 71.24381487296658 145.33045262978905 79.6394671816042 H 0.0 **** 0.06
36798 H 72.72702527899297 146.24769854495642 79.99500928375295 H 0.0 **** 0.06
36799 H 72.82749066762338 144.52175198266283 79.56945595077312 H 0.0 **** 0.06
36800 H 72.14773086516749 145.01327703370916 81.13918143663395 H 0.0 **** 0.06
36801 C 11.752460397246153 47.39760698619622 132.4106881422406 C 0.0 **** -0.24
36802 H 12.193138167649835 47.94175756542782 133.24681325428077 H 0.0 **** 0.06
36803 H 10.811540357436769 46.94747897807483 132.72636539732494 H 0.0 **** 0.06
36804 H 12.438534445032161 46.61590671532636 132.0846314258433 H 0.0 **** 0.06
36805 H 11.56792524039136 48.08623489457517 131.58649687068504 H 0.0 **** 0.06
36806 C 26.415160327871448 1.2393623539817895 135.8310354614597 C 0.0 **** -0.24
36807 H 26.878138350211238 1.542154958227826 136.76997148993038 H 0.0 **** 0.06
36808 H 25.467357062366702 0.7417360963516728 136.03765588197717 H 0.0 **** 0.06
36809 H 27.078986377071487 0.5542167439958519 135.30339980797456 H 0.0 **** 0.06
36810 H 26.23704600847106 2.1197797196983856 135.2129654967145 H 0.0 **** 0.06
36811 C 104.3814142909248 33.29726899536769 5.740372182035685 C 0.0 **** -0.24
36812 H 104.24862631831013 34.024327415222615 6.541047066740418 H 0.0 **** 0.06
36813 H 105.04347124416273 33.7119603386179 4.979245620661487 H 0.0 **** 0.06
36814 H 103.41338535991338 33.06741323024309 5.294154463155905 H 0.0 **** 0.06
36815 H 104.82033199231063 32.38526755356327 6.14605993909251 H 0.0 **** 0.06
36816 C 104.552259861196 33.40009332300552 117.09340342180131 C 0.0 **** -0.24
36817 H 105.22677144956732 32.72013008137959 117.61521858959053 H 0.0 **** 0.06
36818 H 103.52416235614373 33.1867778053129 117.38752235248155 H 0.0 **** 0.06
36819 H 104.65901943703285 33.26216272132529 116.01758074773225 H 0.0 **** 0.06
36820 H 104.79953063828486 34.4291119445768 117.35429369559789 H 0.0 **** 0.06
36821 C 14.436883106687503 135.24477696314645 48.770848094412 C 0.0 **** -0.24
36822 H 14.422145550135838 134.16616360237688 48.927493941534266 H 0.0 **** 0.06
36823 H 13.608936798807747 135.70172693658864 49.312784921658135 H 0.0 **** 0.06
36824 H 14.338531901176736 135.45825095342423 47.706888623750245 H 0.0 **** 0.06
36825 H 15.380330997065073 135.65127443022206 49.137372107915894 H 0.0 **** 0.06
36826 C 131.11456874455067 128.66215864516582 3.573770779154863 C 0.0 **** -0.24
36827 H 130.96951208088223 127.71740503006457 3.0514136257929003 H 0.0 **** 0.06
36828 H 130.19026414681784 129.23946442132487 3.5432918127057285 H 0.0 **** 0.06
36829 H 131.91154807638048 129.2266198650732 3.0888579946670625 H 0.0 **** 0.06
36830 H 131.38783271154233 128.46650434507436 4.610907278184079 H 0.0 **** 0.06
36831 C 130.92549938121456 128.3668359135304 49.663636990626685 C 0.0 **** -0.24
36832 H 131.79502965747716 128.6555556278691 50.25355214790636 H 0.0 **** 0.06
36833 H 130.0779887742498 128.19320751026038 50.32619628205751 H 0.0 **** 0.06
36834 H 131.1488055493751 127.45289757200234 49.11199034738365 H 0.0 **** 0.06
36835 H 130.68144867245425 129.164134067669 48.9618216390308 H 0.0 **** 0.06
36836 C 122.923894112738 38.943141866770844 143.92944987696532 C 0.0 **** -0.24
36837 H 123.45590301484494 38.164716769894085 144.47543316266285 H 0.0 **** 0.06
36838 H 123.6299691103937 39.71221352100352 143.61311639605017 H 0.0 **** 0.06
36839 H 122.16733843797654 39.38840740095716 144.57586694707962 H 0.0 **** 0.06
36840 H 122.44228715369242 38.508641807336204 143.05339032605937 H 0.0 **** 0.06
36841 C 16.636089977138226 97.34221763420325 8.106846015644955 C 0.0 **** -0.24
36842 H 16.967918857030327 97.37360082500241 7.0690451738372495 H 0.0 **** 0.06
36843 H 15.58554102665164 97.62879235914659 8.160247786430038 H 0.0 **** 0.06
36844 H 17.233010838077803 98.03508364578819 8.699810657979011 H 0.0 **** 0.06
36845 H 16.7576714620605 96.33153634666444 8.49605952825205 H 0.0 **** 0.06
36846 C 47.89488087317582 95.29327667233619 0.23770464752317366 C 0.0 **** -0.24
36847 H 47.828050694473546 94.73413477893799 -0.6960512125141918 H 0.0 **** 0.06
36848 H 48.7460763233849 95.97270774471389 0.19482556945723672 H 0.0 **** 0.06
36849 H 48.024089272748625 94.60025124162132 1.0683873731750282 H 0.0 **** 0.06
36850 H 46.97831466274576 95.86662526194269 0.3828382102398109 H 0.0 **** 0.06
36851 C 143.16260674395554 78.74727815923649 110.21873802121027 C 0.0 **** -0.24
36852 H 144.02053820340632 79.10141684071465 110.78877330719357 H 0.0 **** 0.06
36853 H 143.34661242371564 77.72632859884976 109.88256269527861 H 0.0 **** 0.06
36854 H 143.0094029529272 79.39323193983398 109.3548368912611 H 0.0 **** 0.06
36855 H 142.2734470277414 78.7680565246065 110.84968033211092 H 0.0 **** 0.06
36856 C 135.64635322941297 123.90297550702608 17.544998079587153 C 0.0 **** -0.24
36857 H 135.49475637188925 123.3664049101563 16.608259431174318 H 0.0 **** 0.06
36858 H 134.6933815464714 124.3036958903877 17.890950469297096 H 0.0 **** 0.06
36859 H 136.3486899520671 124.72058152564179 17.38574865349252 H 0.0 **** 0.06
36860 H 136.04707926388699 123.2194460535973 18.293139778821782 H 0.0 **** 0.06
36861 C 105.6628220100713 91.20073217872702 18.446079876578032 C 0.0 **** -0.24
36862 H 105.74063272331784 91.4911839692154 19.49350964584579 H 0.0 **** 0.06
36863 H 104.71702507601469 91.55713299382417 18.039015412479927 H 0.0 **** 0.06
36864 H 105.70748665955006 90.11522362147933 18.366599855111197 H 0.0 **** 0.06
36865 H 106.48823091920377 91.64037903765785 17.88600784915787 H 0.0 **** 0.06
36866 C 60.958047152663525 42.64637092183116 11.108158562425103 C 0.0 **** -0.24
36867 H 61.56081360837719 43.50081072379524 11.417744044501546 H 0.0 **** 0.06
36868 H 60.1759072563199 42.46820323335879 11.846426381212325 H 0.0 **** 0.06
36869 H 61.59263169565281 41.76388877291052 11.030097127478172 H 0.0 **** 0.06
36870 H 60.50395208235847 42.85500975035487 10.140056629458542 H 0.0 **** 0.06
36871 C 70.67548058285396 44.025507774977385 26.679623590126198 C 0.0 **** -0.24
36872 H 69.87474027439217 43.285437675659466 26.68229521636175 H 0.0 **** 0.06
36873 H 71.5932352924415 43.565608991939385 26.311523943069517 H 0.0 **** 0.06
36874 H 70.83367439543602 44.39227414508554 27.693131845847006 H 0.0 **** 0.06
36875 H 70.39883396359184 44.85579227295797 26.030353100471984 H 0.0 **** 0.06
36876 C 9.45264987411295 3.2149876034983436 80.03545091319131 C 0.0 **** -0.24
36877 H 9.274456620118087 4.284282517483177 80.14695169626995 H 0.0 **** 0.06
36878 H 9.113913667895623 2.890509386815836 79.05165593645808 H 0.0 **** 0.06
36879 H 8.902735345303991 2.673871068641972 80.80553390169644 H 0.0 **** 0.06
36880 H 10.51843803993151 3.0109076284939533 80.13852297091208 H 0.0 **** 0.06
36881 C 141.0195282893959 141.64528806087884 69.39847641533048 C 0.0 **** -0.24
36882 H 140.65921878055983 140.70368328560804 68.98274158060613 H 0.0 **** 0.06
36883 H 141.44159368969426 142.25693960012057 68.60035979550977 H 0.0 **** 0.06
36884 H 141.78780788509053 141.44148043624972 70.14457950945899 H 0.0 **** 0.06
36885 H 140.19090404227498 142.17706045377201 69.8659909818176 H 0.0 **** 0.06
36886 C 132.84665047106054 110.45477139395013 52.293273243237266 C 0.0 **** -0.24
36887 H 132.06146918724065 110.19515444868847 53.004164473315555 H 0.0 **** 0.06
36888 H 133.78498809578934 110.60496080214796 52.82825323324603 H 0.0 **** 0.06
36889 H 132.5748585557095 111.37143885169718 51.77030880566301 H 0.0 **** 0.06
36890 H 132.964762501936 109.64572567984146 51.5724796009696 H 0.0 **** 0.06
36891 C 74.65069369398208 8.655141804430428 79.79790656013535 C 0.0 **** -0.24
36892 H 75.63470368965253 8.282403290971388 80.0839332469185 H 0.0 **** 0.06
36893 H 74.02155773193748 7.820184330193541 79.48879190171006 H 0.0 **** 0.06
36894 H 74.75491360688048 9.358021671909171 78.97104198832727 H 0.0 **** 0.06
36895 H 74.1929801574606 9.160971467569794 80.64889224137723 H 0.0 **** 0.06
36896 C 49.68274931679491 65.54148866877375 102.6989443878545 C 0.0 **** -0.24
36897 H 49.76173560507783 65.17415906315766 101.67560376208635 H 0.0 **** 0.06
36898 H 50.652246880589246 65.91583175307635 103.02649223536949 H 0.0 **** 0.06
36899 H 49.36660303184209 64.72795815313026 103.35231223818265 H 0.0 **** 0.06
36900 H 48.949331660429834 66.34663683459272 102.73964889108406 H 0.0 **** 0.06
36901 C 107.3386295181886 118.09809173793764 71.21696639211976 C 0.0 **** -0.24
36902 H 106.25213009330996 118.04822313455242 71.29524833102523 H 0.0 **** 0.06
36903 H 107.62136842567485 118.97896461233381 70.64102580211875 H 0.0 **** 0.06
36904 H 107.70721979069502 117.20286690306568 70.71687982901075 H 0.0 **** 0.06
36905 H 107.77161924674986 118.16052522324935 72.21493974723012 H 0.0 **** 0.06
36906 C 113.16219681453715 6.022434548023369 83.65616986510523 C 0.0 **** -0.24
36907 H 112.58124583327837 5.633020516188964 84.49144976457708 H 0.0 **** 0.06
36908 H 113.62108592032688 6.968690289932823 83.94345330312481 H 0.0 **** 0.06
36909 H 112.50663363766522 6.180387301741092 82.80016418930941 H 0.0 **** 0.06
36910 H 113.94090267187529 5.307327184270235 83.39154460414025 H 0.0 **** 0.06
36911 C 48.569149670546295 110.45053088583226 101.88781896945918 C 0.0 **** -0.24
36912 H 48.62117984743081 110.81799232456841 102.9131066779494 H 0.0 **** 0.06
36913 H 47.52559702196848 110.33739309755337 101.59475653783613 H 0.0 **** 0.06
36914 H 49.072158686939616 109.48545230881125 101.82285599219833 H 0.0 **** 0.06
36915 H 49.0595228600245 111.16070778359942 101.22283870066636 H 0.0 **** 0.06
36916 C 36.37279522250804 118.7857133584594 125.35446657482969 C 0.0 **** -0.24
36917 H 35.951176112770675 118.13889803411148 126.12358304205489 H 0.0 **** 0.06
36918 H 37.362251107617446 119.12287245551785 125.66654793939888 H 0.0 **** 0.06
36919 H 35.72373554290571 119.6494567987779 125.20919884776202 H 0.0 **** 0.06
36920 H 36.45617182703748 118.2324769487633 124.419335200848 H 0.0 **** 0.06
36921 C 58.89361499749958 113.90964589820607 35.535656844312086 C 0.0 **** -0.24
36922 H 58.83441392549027 113.09442021299645 36.256972464831854 H 0.0 **** 0.06
36923 H 58.7242155759201 114.8584535698555 36.0465323812746 H 0.0 **** 0.06
36924 H 58.13465076513195 113.76978402483405 34.766086941892276 H 0.0 **** 0.06
36925 H 59.881563572484694 113.91603761526125 35.075235673874545 H 0.0 **** 0.06
36926 C 31.741408987764352 55.63314629411691 142.8460752324785 C 0.0 **** -0.24
36927 H 31.647804575836197 55.86258200861654 143.90798266949645 H 0.0 **** 0.06
36928 H 31.281869448122848 54.6653455489502 142.64152427685536 H 0.0 **** 0.06
36929 H 32.796263452210276 55.599976192279726 142.57337080777006 H 0.0 **** 0.06
36930 H 31.239720315883098 56.40528109549993 142.26222315322255 H 0.0 **** 0.06
36931 C 23.393779686768482 100.81847112713257 79.55939170793067 C 0.0 **** -0.24
36932 H 22.671070486307173 101.60030770783256 79.32470704041977 H 0.0 **** 0.06
36933 H 24.214815212172198 100.85615849301355 78.84286308939403 H 0.0 **** 0.06
36934 H 22.906816292731236 99.8446688693109 79.50327813998548 H 0.0 **** 0.06
36935 H 23.782010681473594 100.97310889387717 80.56541242919839 H 0.0 **** 0.06
36936 C 110.95098629102993 115.6151779526565 45.79969886447614 C 0.0 **** -0.24
36937 H 112.01161968241122 115.75965999511095 46.006209543995965 H 0.0 **** 0.06
36938 H 110.74832237349723 115.84751467523677 44.75472765294751 H 0.0 **** 0.06
36939 H 110.36393275407958 116.2750096293347 46.43898536175331 H 0.0 **** 0.06
36940 H 110.68037566906933 114.57824573091602 46.00259150033642 H 0.0 **** 0.06
36941 C 27.079021539956926 59.941460797954505 90.7660736858943 C 0.0 **** -0.24
36942 H 26.656864124343258 60.59565533812014 91.52841119870612 H 0.0 **** 0.06
36943 H 26.316534917164404 59.239517108971825 90.42655614596404 H 0.0 **** 0.06
36944 H 27.919664418837712 59.388853013440894 91.18645222059857 H 0.0 **** 0.06
36945 H 27.423212387213425 60.54090510153608 89.9232373511783 H 0.0 **** 0.06
36946 C 39.930246331937695 26.860343637310166 51.25830568397495 C 0.0 **** -0.24
36947 H 38.97470512299353 26.812328744998354 50.736238201233704 H 0.0 **** 0.06
36948 H 40.54555565990216 27.644604649155042 50.8168467249549 H 0.0 **** 0.06
36949 H 40.442613037068284 25.902013621994058 51.16592659270029 H 0.0 **** 0.06
36950 H 39.758799835934894 27.081116639364552 52.31141690156491 H 0.0 **** 0.06
36951 C 7.411828478888651 9.877999815173098 68.7435826278195 C 0.0 **** -0.24
36952 H 7.1636757426111615 8.831705736713229 68.57097112741441 H 0.0 **** 0.06
36953 H 7.928946828736628 10.277988698296241 67.87096390500572 H 0.0 **** 0.06
36954 H 8.058755318546076 9.958998426890318 69.61765689708908 H 0.0 **** 0.06
36955 H 6.497173617256237 10.44581985599035 68.91581156503867 H 0.0 **** 0.06
36956 C 138.05682987473529 77.85112551533645 37.290569399434474 C 0.0 **** -0.24
36957 H 138.96347429932115 77.53357299935084 37.8051830064594 H 0.0 **** 0.06
36958 H 138.19761984211374 78.85625712553079 36.89310678853167 H 0.0 **** 0.06
36959 H 137.2223171834842 77.85060697185928 37.99117139676133 H 0.0 **** 0.06
36960 H 137.8440661991067 77.16299296822935 36.471907594009 H 0.0 **** 0.06
36961 C 18.5698235428696 120.76974309270402 37.78280568964604 C 0.0 **** -0.24
36962 H 19.186542262211177 120.83941313924119 36.8871489633066 H 0.0 **** 0.06
36963 H 17.553511529475315 120.48914728264835 37.502564955513236 H 0.0 **** 0.06
36964 H 18.553579640245005 121.73485194825712 38.288362702616325 H 0.0 **** 0.06
36965 H 18.984173061373127 120.015934332383 38.45123643782307 H 0.0 **** 0.06
36966 C 82.4175464482081 47.870383454115185 73.58170293370858 C 0.0 **** -0.24
36967 H 82.2560925752544 46.90923540043903 74.0687931920464 H 0.0 **** 0.06
36968 H 82.98911044250644 48.52194480729061 74.2427258552477 H 0.0 **** 0.06
36969 H 81.45482504701437 48.33138659623562 73.35978284670728 H 0.0 **** 0.06
36970 H 82.96936151148799 47.7183953898964 72.65349998880089 H 0.0 **** 0.06
36971 C 64.21874035385298 47.74556064827003 97.99521253744072 C 0.0 **** -0.24
36972 H 65.18624577178053 47.87913428385086 97.5119980756166 H 0.0 **** 0.06
36973 H 63.53304838969018 47.25235212116726 97.30491850189867 H 0.0 **** 0.06
36974 H 63.815370442288156 48.718256797655314 98.27491911087048 H 0.0 **** 0.06
36975 H 64.33962534908102 47.13175895510528 98.88759988560182 H 0.0 **** 0.06
36976 C 97.29261326515069 108.56410110675513 81.17711807724316 C 0.0 **** -0.24
36977 H 96.79336763102452 108.76861072908535 82.12439339131225 H 0.0 **** 0.06
36978 H 98.37278481588785 108.59194301922084 81.32222551031529 H 0.0 **** 0.06
36979 H 97.00418182355098 109.31809206231263 80.44498159945536 H 0.0 **** 0.06
36980 H 96.99852780851762 107.57736948262941 80.8186932398753 H 0.0 **** 0.06
36981 C 92.89871952985057 36.58099436892569 118.44559034927609 C 0.0 **** -0.24
36982 H 92.27295985705011 36.168821689237205 119.23761145954889 H 0.0 **** 0.06
36983 H 93.91297836539577 36.71990060848546 118.82024749901665 H 0.0 **** 0.06
36984 H 92.49350071017008 37.54036976430608 118.12541006821591 H 0.0 **** 0.06
36985 H 92.91374622235345 35.89288998876502 117.60016591599823 H 0.0 **** 0.06
36986 C 9.393212842206388 88.06466190696575 84.79645417060902 C 0.0 **** -0.24
36987 H 9.15811694765355 87.25015647113547 85.48101802992446 H 0.0 **** 0.06
36988 H 9.342815900921039 87.70267173368765 83.76908850986334 H 0.0 **** 0.06
36989 H 10.398467229373928 88.43286900356942 85.00282295134011 H 0.0 **** 0.06
36990 H 8.67515485567662 88.87318077781386 84.93309916548762 H 0.0 **** 0.06
36991 C 7.534458242064254 43.363902915560374 120.64228851568241 C 0.0 **** -0.24
36992 H 7.77607321066894 43.9870395115219 121.50316299674502 H 0.0 **** 0.06
36993 H 7.429983329220629 42.32770754431134 120.96264613484603 H 0.0 **** 0.06
36994 H 8.333143353658894 43.437813404609116 119.90445980030172 H 0.0 **** 0.06
36995 H 6.597924508154303 43.703815725419446 120.20026844863064 H 0.0 **** 0.06
36996 C 12.976826282012112 106.66503504585556 16.711832275591178 C 0.0 **** -0.24
36997 H 13.082879018673154 106.98190441934081 17.74960755796397 H 0.0 **** 0.06
36998 H 12.9964324513139 105.57576147540262 16.661348197668616 H 0.0 **** 0.06
36999 H 13.797137558261213 107.07189799130536 16.122190211483485 H 0.0 **** 0.06
37000 H 12.028145815052653 107.02940894897368 16.317062787466483 H 0.0 **** 0.06
37001 C 93.20454999441142 132.86612520625656 35.11248360439811 C 0.0 **** -0.24
37002 H 93.46753214539649 131.98299797563723 35.69582367169528 H 0.0 **** 0.06
37003 H 92.44888102643236 132.6001086460969 34.3723710717704 H 0.0 **** 0.06
37004 H 94.0923356687018 133.24397710680753 34.606477295069595 H 0.0 **** 0.06
37005 H 92.80852104948669 133.63529633575072 35.776060860745105 H 0.0 **** 0.06
37006 C 129.25684079024398 140.87520581669585 33.998636014514375 C 0.0 **** -0.24
37007 H 128.41924648762787 141.35115715764493 33.48922460957061 H 0.0 **** 0.06
37008 H 128.87879999898325 140.1429351078908 34.71292287544264 H 0.0 **** 0.06
37009 H 129.8380713784784 141.63119898263014 34.52727129870567 H 0.0 **** 0.06
37010 H 129.89103775786995 140.37558804879416 33.26610191770925 H 0.0 **** 0.06
37011 C 121.77580855548601 47.981184432379735 34.19878056645439 C 0.0 **** -0.24
37012 H 121.27183303545897 47.561720103143074 35.06977038748579 H 0.0 **** 0.06
37013 H 122.74147378381932 47.49342315914984 34.06839086661145 H 0.0 **** 0.06
37014 H 121.92596602374746 49.05081511608161 34.34806173842685 H 0.0 **** 0.06
37015 H 121.16424073023441 47.82000449881943 33.311623492292554 H 0.0 **** 0.06
37016 C 61.529093601598774 80.76679125540268 17.849044366279827 C 0.0 **** -0.24
37017 H 60.82095754901597 81.456772359592 18.308162338940576 H 0.0 **** 0.06
37018 H 61.591479354576904 80.96966339722137 16.77941599424784 H 0.0 **** 0.06
37019 H 61.19139646631703 79.74217493747693 18.005389983026333 H 0.0 **** 0.06
37020 H 62.51115269589913 80.89932717977116 18.301635799637353 H 0.0 **** 0.06
37021 C 35.311845401434965 122.77525026149955 137.3766002068946 C 0.0 **** -0.24
37022 H 35.733466896231675 122.74460115288345 136.3723732389135 H 0.0 **** 0.06
37023 H 35.24493739057348 123.81046544600548 137.7117266781882 H 0.0 **** 0.06
37024 H 35.953527179823396 122.21347262416857 138.05700624301062 H 0.0 **** 0.06
37025 H 34.31670044628305 122.33077164782613 137.3660564144502 H 0.0 **** 0.06
37026 C 109.05729524653394 15.95689731967034 21.789418329716 C 0.0 **** -0.24
37027 H 109.31110576346798 15.835423381248297 22.842265033164097 H 0.0 **** 0.06
37028 H 109.36943198283636 16.94607583776454 21.452057270762964 H 0.0 **** 0.06
37029 H 107.97926583076868 15.852589580579412 21.66163168903995 H 0.0 **** 0.06
37030 H 109.56799806827344 15.193534668186757 21.201408943138233 H 0.0 **** 0.06
37031 C 49.31482421425808 123.2794537118185 7.355964929337034 C 0.0 **** -0.24
37032 H 49.32133881496574 123.23692722163 8.445132940061512 H 0.0 **** 0.06
37033 H 49.30446211099688 122.26719616152342 6.95307892699455 H 0.0 **** 0.06
37034 H 50.20754097317341 123.79991264841331 7.007733364058197 H 0.0 **** 0.06
37035 H 48.42708032245541 123.81425434337685 7.018626887391207 H 0.0 **** 0.06
37036 C 78.56604205904047 100.54417548455257 7.585177662834639 C 0.0 **** -0.24
37037 H 77.70070225476425 100.08061700116372 7.112425706356305 H 0.0 **** 0.06
37038 H 79.42558945115668 100.47376877233029 6.9174328462107155 H 0.0 **** 0.06
37039 H 78.78860393907485 100.02991954076305 8.520091524252422 H 0.0 **** 0.06
37040 H 78.34970096367692 101.59290464242562 7.789512174908879 H 0.0 **** 0.06
37041 C 16.061839040573034 44.701252316779446 105.12632876400939 C 0.0 **** -0.24
37042 H 16.79379433114073 45.458624204392876 105.40574806221768 H 0.0 **** 0.06
37043 H 16.549056274717117 43.72677729465214 105.07275852180238 H 0.0 **** 0.06
37044 H 15.635781133299162 44.94890666369383 104.15361713106284 H 0.0 **** 0.06
37045 H 15.26778627530237 44.6710404235353 105.87312216844755 H 0.0 **** 0.06
37046 C 10.686263095688986 28.827555186182934 115.48002533118756 C 0.0 **** -0.24
37047 H 10.562126820016516 28.956936408024575 114.4050525110477 H 0.0 **** 0.06
37048 H 10.284126380595723 29.698167129007317 115.99910995685758 H 0.0 **** 0.06
37049 H 11.744977823442724 28.721279512255336 115.71356642414156 H 0.0 **** 0.06
37050 H 10.151383782631996 27.93369235811241 115.8025657253798 H 0.0 **** 0.06
37051 C 113.87833829104062 14.45148263576209 16.50017559878458 C 0.0 **** -0.24
37052 H 114.7444725184161 14.613769849256926 15.857481020032253 H 0.0 **** 0.06
37053 H 113.52326144032992 15.409335180924899 16.87854548139663 H 0.0 **** 0.06
37054 H 114.16250279776119 13.812009132645784 17.336685686068137 H 0.0 **** 0.06
37055 H 113.08653515907491 13.969561108809927 15.927131694994529 H 0.0 **** 0.06
37056 C 8.255513197051737 67.50462335390213 7.631936334301969 C 0.0 **** -0.24
37057 H 7.612462052372571 66.96387086918767 8.32742029427311 H 0.0 **** 0.06
37058 H 9.288773531281116 67.45055868523187 7.9755349546487935 H 0.0 **** 0.06
37059 H 7.942077306235589 68.54727083449947 7.585085017485937 H 0.0 **** 0.06
37060 H 8.177002276190002 67.05677284862773 6.642150608639696 H 0.0 **** 0.06
37061 C 102.56672984570531 64.85015502897497 23.33078769035407 C 0.0 **** -0.24
37062 H 102.4485459844366 65.14433321798944 22.2875644659471 H 0.0 **** 0.06
37063 H 103.59622775504143 64.53840557256018 23.505505190047515 H 0.0 **** 0.06
37064 H 101.89254811043277 64.0224460207086 23.552811827573407 H 0.0 **** 0.06
37065 H 102.32824540524018 65.6955644848099 23.976194478195396 H 0.0 **** 0.06
37066 C 26.8353947057456 101.5807430316566 111.26303670435446 C 0.0 **** -0.24
37067 H 26.329978914029716 102.45497984988523 111.67413010870969 H 0.0 **** 0.06
37068 H 27.41339131736577 101.87504109214572 110.38629471251595 H 0.0 **** 0.06
37069 H 26.09470946468545 100.83459382251215 110.97576572080844 H 0.0 **** 0.06
37070 H 27.503884611537586 101.16008774764745 112.01426588209027 H 0.0 **** 0.06
37071 C 74.67208185909449 94.6420966752682 0.24677655684632782 C 0.0 **** -0.24
37072 H 75.03817756278677 95.09115665089429 -0.6771850367925936 H 0.0 **** 0.06
37073 H 73.95519708041256 95.31457452321547 0.7174852116427815 H 0.0 **** 0.06
37074 H 75.50878541436086 94.46992144722303 0.9227482164946537 H 0.0 **** 0.06
37075 H 74.18620385913096 93.69292959158429 0.02074710729777962 H 0.0 **** 0.06
37076 C 53.59095147541149 58.912306254838285 58.69013297020419 C 0.0 **** -0.24
37077 H 53.92239968516705 59.67650970435304 57.985539353174715 H 0.0 **** 0.06
37078 H 53.21947707661039 58.047582596455186 58.139597145873154 H 0.0 **** 0.06
37079 H 52.79538651584886 59.3163393478292 59.315604408235686 H 0.0 **** 0.06
37080 H 54.42959853305115 58.610268741652646 59.31821448625564 H 0.0 **** 0.06
37081 C 0.0075112449399341585 54.03240696816586 119.78451475323972 C 0.0 **** -0.24
37082 H 0.6398485616955156 54.92032513905616 119.78155792056451 H 0.0 **** 0.06
37083 H 0.541958760493003 53.204806251291586 119.3173490080422 H 0.0 **** 0.06
37084 H -0.9065721019054251 54.235681108479994 119.22752811815302 H 0.0 **** 0.06
37085 H -0.24300132158961674 53.76853605075003 120.81198567177692 H 0.0 **** 0.06
37086 C 137.9064098346085 83.64395172584088 33.53094349104532 C 0.0 **** -0.24
37087 H 137.19412160066835 83.796940769516 34.341034642040995 H 0.0 **** 0.06
37088 H 137.37288202417614 83.33384770717372 32.63210841354527 H 0.0 **** 0.06
37089 H 138.61983768118372 82.87060717424283 33.81510681559581 H 0.0 **** 0.06
37090 H 138.4387980324059 84.57441125243106 33.33552409299915 H 0.0 **** 0.06
37091 C 105.33798211600988 39.336977558615274 125.28345446180501 C 0.0 **** -0.24
37092 H 105.70962583003977 39.188472851989104 124.26981439841407 H 0.0 **** 0.06
37093 H 106.05078991852064 39.940480033172776 125.84690878121839 H 0.0 **** 0.06
37094 H 105.21636228816301 38.36886352040736 125.77076009906128 H 0.0 **** 0.06
37095 H 104.37675000524413 39.84925474508316 125.24798912312099 H 0.0 **** 0.06
37096 C 88.46575773494855 109.78428197844187 99.84340793917471 C 0.0 **** -0.24
37097 H 89.48394854686401 109.7521167420141 99.45505142145402 H 0.0 **** 0.06
37098 H 88.25755058489193 110.77997475442265 100.23527983707501 H 0.0 **** 0.06
37099 H 88.35789069669273 109.04884333025188 100.64141085029266 H 0.0 **** 0.06
37100 H 87.76423362036297 109.55432579184202 99.04081151988211 H 0.0 **** 0.06
37101 C 24.713815598506834 23.54083734448465 138.1122821366337 C 0.0 **** -0.24
37102 H 25.713147303128203 23.30902020512375 137.7455195394114 H 0.0 **** 0.06
37103 H 23.97153193440797 23.161093707221703 137.40959538863726 H 0.0 **** 0.06
37104 H 24.604299403076247 24.620522245453813 138.2098760720007 H 0.0 **** 0.06
37105 H 24.565898867318175 23.070634501251824 139.08486625005295 H 0.0 **** 0.06
37106 C 115.55838857832906 109.37831344301482 2.923562604496194 C 0.0 **** -0.24
37107 H 116.48335780920281 109.4940545252626 3.487778684878336 H 0.0 **** 0.06
37108 H 115.53425002898815 110.10558565986774 2.1128109201350505 H 0.0 **** 0.06
37109 H 114.70684704559831 109.54253089002312 3.584876147658992 H 0.0 **** 0.06
37110 H 115.50904355023225 108.37034025542623 2.5108931900486695 H 0.0 **** 0.06
37111 C 4.654824828054473 70.4150442549268 49.10032332482818 C 0.0 **** -0.24
37112 H 4.412757814089133 69.95437891644934 48.142496665588155 H 0.0 **** 0.06
37113 H 5.391819768298404 69.8025975893628 49.62083507647819 H 0.0 **** 0.06
37114 H 3.751879625073826 70.49175602006288 49.70549035318005 H 0.0 **** 0.06
37115 H 5.064816555492399 71.41054208340171 48.9304005537234 H 0.0 **** 0.06
37116 C 58.616670032333786 132.6231097375435 95.14060460439379 C 0.0 **** -0.24
37117 H 59.62033750422904 133.03463291991912 95.0340908956962 H 0.0 **** 0.06
37118 H 58.66329271911468 131.6953284585085 95.71259167413126 H 0.0 **** 0.06
37119 H 58.199733840978695 132.4217529345526 94.15460030401496 H 0.0 **** 0.06
37120 H 57.98333818513237 133.34023924915144 95.66246369903727 H 0.0 **** 0.06
37121 C 122.74058006601028 138.9418760187745 98.99892876380022 C 0.0 **** -0.24
37122 H 123.8110162314551 138.73680700170098 98.99895968412073 H 0.0 **** 0.06
37123 H 122.40815292347794 139.13542893313894 97.97899476274642 H 0.0 **** 0.06
37124 H 122.53916854481524 139.8162755040941 99.61892626245111 H 0.0 **** 0.06
37125 H 122.20576529451439 138.08115896082285 99.39919387319085 H 0.0 **** 0.06
37126 C 129.21750964796632 96.37886598803185 118.85072850584089 C 0.0 **** -0.24
37127 H 129.8283595077012 97.28180205975731 118.83659277980229 H 0.0 **** 0.06
37128 H 128.18502043676094 96.63637128834262 118.61354088546892 H 0.0 **** 0.06
37129 H 129.26076132040626 95.92607920021162 119.84176854301899 H 0.0 **** 0.06
37130 H 129.59506902471924 95.67322090591868 118.11153720544775 H 0.0 **** 0.06
37131 C 78.15294538186295 80.86373701566004 101.98629169966631 C 0.0 **** -0.24
37132 H 77.41036934866995 80.33187343954131 102.58090489939315 H 0.0 **** 0.06
37133 H 77.78190085788461 81.86071878996484 101.74884023896618 H 0.0 **** 0.06
37134 H 78.33883639641654 80.3149275426951 101.06308176263349 H 0.0 **** 0.06
37135 H 79.08039555964776 80.94574766305453 102.55265227233627 H 0.0 **** 0.06
37136 C 41.74225947165523 30.456212707437146 135.14368075294905 C 0.0 **** -0.24
37137 H 42.76653678496686 30.279023513248852 134.8149104769727 H 0.0 **** 0.06
37138 H 41.629447008225696 30.123632334488576 136.1754275864773 H 0.0 **** 0.06
37139 H 41.05484521133033 29.901502791216544 134.5043408753822 H 0.0 **** 0.06
37140 H 41.520404715279724 31.52136304635649 135.07811309844513 H 0.0 **** 0.06
37141 C 10.504300126554426 60.62573263124267 112.67620275101898 C 0.0 **** -0.24
37142 H 9.96610853343114 61.18843183898804 111.913870620129 H 0.0 **** 0.06
37143 H 11.06552897036616 61.31539641987226 113.30746813416788 H 0.0 **** 0.06
37144 H 11.192265085011172 59.92965373958705 112.19556221898144 H 0.0 **** 0.06
37145 H 9.793959711725705 60.07019824056816 113.28791093397665 H 0.0 **** 0.06
37146 C 48.270022475822856 32.0625866083689 139.0183778132157 C 0.0 **** -0.24
37147 H 47.98714330351916 32.3773684738107 138.01358496176164 H 0.0 **** 0.06
37148 H 48.045005968099915 31.00288106568157 139.14317235488022 H 0.0 **** 0.06
37149 H 47.71085730045229 32.64197788419995 139.75230758163823 H 0.0 **** 0.06
37150 H 49.33803354597279 32.22624089085099 139.16319334887982 H 0.0 **** 0.06
37151 C 132.4480443857545 45.259044205015016 85.51411653343844 C 0.0 **** -0.24
37152 H 133.39747100892555 45.46891226196334 86.00834467188889 H 0.0 **** 0.06
37153 H 131.928779471545 44.464475478807 86.04867179200035 H 0.0 **** 0.06
37154 H 132.63500304833482 44.94455035746057 84.48695198441176 H 0.0 **** 0.06
37155 H 131.8336570862097 46.1593784376289 85.51201627243633 H 0.0 **** 0.06
37156 C 30.243362668540996 92.23536451806294 107.37295029379415 C 0.0 **** -0.24
37157 H 29.866552955168515 92.17342044367675 108.3946911323276 H 0.0 **** 0.06
37158 H 31.053669111597372 91.51860184625636 107.24066414250534 H 0.0 **** 0.06
37159 H 30.61363044431718 93.24307219315335 107.1842417466353 H 0.0 **** 0.06
37160 H 29.437362871433777 92.00702155693077 106.67456445669178 H 0.0 **** 0.06
37161 C 92.47570139078861 42.01196514847763 96.51060450291631 C 0.0 **** -0.24
37162 H 92.20480815639219 42.71202683961229 95.72004811926914 H 0.0 **** 0.06
37163 H 91.59813925407101 41.431302070236114 96.79699765011686 H 0.0 **** 0.06
37164 H 92.84374138812937 42.56425744827865 97.37493178345287 H 0.0 **** 0.06
37165 H 93.25380253642642 41.34028783298825 96.14963769775073 H 0.0 **** 0.06
37166 C 19.96498273253063 13.02239266637352 70.89955876611953 C 0.0 **** -0.24
37167 H 19.658621604410698 14.060933294545748 70.77696557353886 H 0.0 **** 0.06
37168 H 21.052696817084914 12.968064779071597 70.94965336002403 H 0.0 **** 0.06
37169 H 19.610594042275345 12.436253762460325 70.05091585403031 H 0.0 **** 0.06
37170 H 19.537476669749466 12.624133464956856 71.81940714741609 H 0.0 **** 0.06
37171 C 90.17683831813565 77.38167215804232 12.041138513740577 C 0.0 **** -0.24
37172 H 90.79416946548173 76.94059407827211 12.823610411050261 H 0.0 **** 0.06
37173 H 90.78499067869349 78.05188029814471 11.433551766406225 H 0.0 **** 0.06
37174 H 89.36059448803466 77.94257253653316 12.496755333926174 H 0.0 **** 0.06
37175 H 89.76820519903377 76.59098267244856 11.412916457171725 H 0.0 **** 0.06
37176 C 106.86324694201514 128.5185448915804 10.41759719704799 C 0.0 **** -0.24
37177 H 107.67289413243643 128.99544760548434 9.864810489571433 H 0.0 **** 0.06
37178 H 106.05949213368953 129.2375618275513 10.577777641787485 H 0.0 **** 0.06
37179 H 107.23777439118132 128.17168654787338 11.380866833079565 H 0.0 **** 0.06
37180 H 106.48521600727636 127.67002527455016 9.846930930304048 H 0.0 **** 0.06
37181 C 97.41795387144074 55.02437952264826 70.94321152621015 C 0.0 **** -0.24
37182 H 97.33893349045117 55.40866151233472 69.92678199984573 H 0.0 **** 0.06
37183 H 97.3534685156536 53.93651004754625 70.92567491464307 H 0.0 **** 0.06
37184 H 96.60553667924911 55.42759829835421 71.54777237600857 H 0.0 **** 0.06
37185 H 98.37325333133835 55.324937148830045 71.3718581045396 H 0.0 **** 0.06
37186 C 26.538924592825254 125.03923803030224 124.7361879997397 C 0.0 **** -0.24
37187 H 26.668273061120715 125.04583119732152 123.65355027905807 H 0.0 **** 0.06
37188 H 25.577020503679535 124.589243268618 124.9842770696464 H 0.0 **** 0.06
37189 H 26.56905854303477 126.06298917401094 125.11164308032141 H 0.0 **** 0.06
37190 H 27.340673494880775 124.46089466348737 125.19455849752656 H 0.0 **** 0.06
37191 C 103.72415829329499 117.29437849936285 124.10865389020526 C 0.0 **** -0.24
37192 H 104.01888541915699 116.34294253364563 123.66518748850513 H 0.0 **** 0.06
37193 H 104.60951635774134 117.81374977049747 124.4744782300471 H 0.0 **** 0.06
37194 H 103.0395223687996 117.11328790016255 124.93762238700754 H 0.0 **** 0.06
37195 H 103.22810364777017 117.90709217947041 123.35522063035741 H 0.0 **** 0.06
37196 C 106.89288660572852 137.6397593886577 6.327380157488761 C 0.0 **** -0.24
37197 H 105.88581769462398 137.2464344028692 6.1954313732517505 H 0.0 **** 0.06
37198 H 107.27770043399305 137.9818637190002 5.366401561075492 H 0.0 **** 0.06
37199 H 107.5411740471947 136.85645848262007 6.7207298750329585 H 0.0 **** 0.06
37200 H 106.86706903716852 138.47596058006926 7.027322292238665 H 0.0 **** 0.06
37201 C 14.554452148015145 73.47637527485912 62.7678563928535 C 0.0 **** -0.24
37202 H 14.338598779474552 72.72624853604299 63.52835562054037 H 0.0 **** 0.06
37203 H 14.820947426684853 72.98196487953848 61.83424218990433 H 0.0 **** 0.06
37204 H 15.38529643651836 74.09941045883406 63.09954727502742 H 0.0 **** 0.06
37205 H 13.673889561470332 74.09871176476284 62.61139016511737 H 0.0 **** 0.06
37206 C 120.49425699826826 57.991425772081485 79.37830231329396 C 0.0 **** -0.24
37207 H 120.91831507602056 58.49989977950092 78.5125720918601 H 0.0 **** 0.06
37208 H 120.71046992138004 56.92525044716754 79.31568431173908 H 0.0 **** 0.06
37209 H 119.4149518423559 58.14412990129125 79.39737445826734 H 0.0 **** 0.06
37210 H 120.93466031446091 58.39900089285487 80.28915323807864 H 0.0 **** 0.06
37211 C 43.670447389253425 70.06625066821846 92.15220173124186 C 0.0 **** -0.24
37212 H 43.38595756125996 69.01766597427599 92.24593339050404 H 0.0 **** 0.06
37213 H 44.186193074605555 70.38436384844064 93.0582962589611 H 0.0 **** 0.06
37214 H 42.77658291004559 70.6726467315982 92.00901665990284 H 0.0 **** 0.06
37215 H 44.33310359139104 70.18685480490285 91.29458681609094 H 0.0 **** 0.06
37216 C 9.4791368858547 48.29504656632106 28.391124717576076 C 0.0 **** -0.24
37217 H 9.687838260184293 47.49694669285242 27.67853420852225 H 0.0 **** 0.06
37218 H 9.821964352886368 47.99505596995793 29.382043445328748 H 0.0 **** 0.06
37219 H 8.406149217881847 48.48550063236435 28.41968381653919 H 0.0 **** 0.06
37220 H 10.000846537594782 49.201717450661405 28.08430741871379 H 0.0 **** 0.06
37221 C 21.058480515543124 145.40014428598576 53.417244739448705 C 0.0 **** -0.24
37222 H 22.053234487677628 144.9804559076931 53.56338525288996 H 0.0 **** 0.06
37223 H 20.371512249456657 144.96962890569816 54.146459416591696 H 0.0 **** 0.06
37224 H 20.710915599922544 145.16912540151864 52.410633706425415 H 0.0 **** 0.06
37225 H 21.0981430862725 146.4810702466054 53.549448431348054 H 0.0 **** 0.06
37226 C 40.50364792081192 117.69350205357142 52.45848605427584 C 0.0 **** -0.24
37227 H 41.502965855758305 117.29389047981692 52.28593127637539 H 0.0 **** 0.06
37228 H 40.23417625194922 117.55719704782928 53.50559390012181 H 0.0 **** 0.06
37229 H 39.78797514916711 117.16628637670846 51.82637444973359 H 0.0 **** 0.06
37230 H 40.4909240298826 118.75488632208112 52.21435831165495 H 0.0 **** 0.06
37231 C 17.254907069242535 88.07213824160203 122.93485134069222 C 0.0 **** -0.24
37232 H 17.17630484838415 88.62000229244796 121.99563433446026 H 0.0 **** 0.06
37233 H 17.822525957805595 87.15500132897938 122.77393948200664 H 0.0 **** 0.06
37234 H 16.255718921102385 87.82254766013915 123.2935692482786 H 0.0 **** 0.06
37235 H 17.76300127851522 88.69021370252432 123.67424625697195 H 0.0 **** 0.06
37236 C 139.59299550442987 42.46546819379272 67.92850238237504 C 0.0 **** -0.24
37237 H 140.09739333678172 41.94893260537626 67.11137158186227 H 0.0 **** 0.06
37238 H 139.18493410173295 43.40836455466713 67.56476314786345 H 0.0 **** 0.06
37239 H 140.3059586353586 42.661249397221226 68.72941136017715 H 0.0 **** 0.06
37240 H 138.78424352848006 41.84061507851909 68.30730142951597 H 0.0 **** 0.06
37241 C 76.78040545357675 70.47680720974762 126.71840234751596 C 0.0 **** -0.24
37242 H 76.7513330229519 71.51089690894781 127.06353454921802 H 0.0 **** 0.06
37243 H 76.26262606760842 70.39847343839496 125.76233319061095 H 0.0 **** 0.06
37244 H 76.29027759335216 69.83609037766328 127.45139451294557 H 0.0 **** 0.06
37245 H 77.81748388463036 70.1635540408891 126.59768912503185 H 0.0 **** 0.06
37246 C 53.585488567024356 62.01238600895766 6.611969476814124 C 0.0 **** -0.24
37247 H 53.39707317186006 62.65634047908321 7.470826952239008 H 0.0 **** 0.06
37248 H 54.2042672021485 61.16900285642711 6.918380563015262 H 0.0 **** 0.06
37249 H 54.10312240025053 62.581298500180424 5.838600380909952 H 0.0 **** 0.06
37250 H 52.63762584638748 61.645549644053546 6.218665239489496 H 0.0 **** 0.06
37251 C 88.18802685547547 105.76917183976813 4.468375144641605 C 0.0 **** -0.24
37252 H 87.47489107888066 105.6056442555578 5.276561389128773 H 0.0 **** 0.06
37253 H 88.57678069333656 106.78648322754601 4.527544001587099 H 0.0 **** 0.06
37254 H 87.69052250482983 105.62526210656172 3.5097697699553514 H 0.0 **** 0.06
37255 H 89.01101714011753 105.05967721165094 4.561532624347894 H 0.0 **** 0.06
37256 C 92.27759084322003 116.82790855139437 127.78317612723352 C 0.0 **** -0.24
37257 H 91.48120437159139 116.25091914251395 128.2517448470883 H 0.0 **** 0.06
37258 H 91.96605263722171 117.86834269234227 127.68894950873526 H 0.0 **** 0.06
37259 H 92.48757212986567 116.42062189822867 126.79304359295124 H 0.0 **** 0.06
37260 H 93.17677006317359 116.77196165483154 128.39686218593818 H 0.0 **** 0.06
37261 C 131.04239760460362 91.98567021435522 129.47828456878005 C 0.0 **** -0.24
37262 H 131.63068375345316 92.71383197793622 130.0360808761227 H 0.0 **** 0.06
37263 H 131.32811145820193 92.01786691375077 128.42664590215804 H 0.0 **** 0.06
37264 H 129.9832486084971 92.22516512821527 129.57408904036336 H 0.0 **** 0.06
37265 H 131.22750854469382 90.98791741301164 129.8755567196187 H 0.0 **** 0.06
37266 C 124.38415837094982 81.38174741963769 14.177976076459856 C 0.0 **** -0.24
37267 H 124.93659810202212 82.30630569464822 14.345126394552665 H 0.0 **** 0.06
37268 H 123.34874560074621 81.51635714515533 14.490140285779518 H 0.0 **** 0.06
37269 H 124.83847323237592 80.5777468419752 14.75782262101012 H 0.0 **** 0.06
37270 H 124.41476043614875 81.1267824535775 13.11839016643276 H 0.0 **** 0.06
37271 C 72.49692638544641 129.5531045908346 47.39212234767129 C 0.0 **** -0.24
37272 H 73.06307268020228 129.67526229566946 48.31575148504305 H 0.0 **** 0.06
37273 H 71.53921796026216 129.0794608307279 47.61365827551518 H 0.0 **** 0.06
37274 H 73.06084892917846 128.92684738946838 46.70042067563429 H 0.0 **** 0.06
37275 H 72.32366479708199 130.5299393986137 46.94074770202931 H 0.0 **** 0.06
37276 C 120.95368634187533 144.21176865546224 125.35240970115265 C 0.0 **** -0.24
37277 H 120.67711312646041 143.68110895638287 126.26300313429357 H 0.0 **** 0.06
37278 H 122.02670162589241 144.40271443989866 125.35435701197474 H 0.0 **** 0.06
37279 H 120.41564970379379 145.15862364161467 125.30580378384718 H 0.0 **** 0.06
37280 H 120.69446910676301 143.60400930485065 124.48549569544059 H 0.0 **** 0.06
37281 C 78.68442606952232 70.83550348610808 91.40997857784231 C 0.0 **** -0.24
37282 H 79.02935010729799 70.7689844113143 90.37854827003412 H 0.0 **** 0.06
37283 H 78.86592187149357 71.84141832920166 91.789419651495 H 0.0 **** 0.06
37284 H 79.22654132435017 70.1132675451773 92.02145404743419 H 0.0 **** 0.06
37285 H 77.61760710078867 70.61837478923674 91.45072488065085 H 0.0 **** 0.06
37286 C 59.87590177923656 9.010065032543793 119.19903056755076 C 0.0 **** -0.24
37287 H 59.119011469379245 8.363452290919582 118.7532974791818 H 0.0 **** 0.06
37288 H 60.65881510404891 8.396669575266941 119.64663943582677 H 0.0 **** 0.06
37289 H 59.41550655868599 9.631104051061584 119.96697043723883 H 0.0 **** 0.06
37290 H 60.308904181088295 9.646605200336722 118.42772361907198 H 0.0 **** 0.06
37291 C 124.46094404377402 37.25466688321728 30.751051265040275 C 0.0 **** -0.24
37292 H 125.02978915680353 38.0308652098412 30.237892080892948 H 0.0 **** 0.06
37293 H 123.43581929341536 37.59460160005542 30.89967343489026 H 0.0 **** 0.06
37294 H 124.91961201431471 37.04704384012222 31.717965053574858 H 0.0 **** 0.06
37295 H 124.45927476615111 36.347743770805636 30.1472727190354 H 0.0 **** 0.06
37296 C 116.50571854393941 60.29299045589485 62.83356175137307 C 0.0 **** -0.24
37297 H 116.3952320108349 59.24589378978651 62.55112201115604 H 0.0 **** 0.06
37298 H 116.6383898622261 60.89900623249672 61.93738761031268 H 0.0 **** 0.06
37299 H 117.37462727757712 60.405237103522296 63.48103618586846 H 0.0 **** 0.06
37300 H 115.61249135330094 60.621654667654155 63.365348309226846 H 0.0 **** 0.06
37301 C 126.70565651939006 40.94403936759241 22.785287616045792 C 0.0 **** -0.24
37302 H 127.6179543444805 40.39042811794917 23.00420563192852 H 0.0 **** 0.06
37303 H 126.14136109103599 41.09260326536345 23.706092886717286 H 0.0 **** 0.06
37304 H 126.10057879293808 40.37998735099906 22.075781347438486 H 0.0 **** 0.06
37305 H 126.96239270508548 41.91229295252565 22.355482514633778 H 0.0 **** 0.06
37306 C 66.63868229670256 68.24660988876548 26.878370103488805 C 0.0 **** -0.24
37307 H 67.62821998232988 67.97444347475738 27.24589359702827 H 0.0 **** 0.06
37308 H 66.19181219609169 67.39047199984168 26.371851620281063 H 0.0 **** 0.06
37309 H 66.72785005652037 69.07792726639462 26.178546943822823 H 0.0 **** 0.06
37310 H 66.00911462931431 68.54288189661239 27.71659936053703 H 0.0 **** 0.06
37311 C 22.09602575593256 82.15136655902674 140.24857297944737 C 0.0 **** -0.24
37312 H 23.152387687311943 82.41315540221504 140.31919185465296 H 0.0 **** 0.06
37313 H 21.99971601938654 81.11509181023891 139.9245776452226 H 0.0 **** 0.06
37314 H 21.607093367589016 82.8062956461512 139.5267565579387 H 0.0 **** 0.06
37315 H 21.626903412748504 82.27309248710216 141.2252842750653 H 0.0 **** 0.06
37316 C 68.15090774103332 75.18892520603507 137.80187851378017 C 0.0 **** -0.24
37317 H 68.54969224201598 76.06141213664826 138.31921338132472 H 0.0 **** 0.06
37318 H 67.66921446125524 75.50507582906832 136.8768437872637 H 0.0 **** 0.06
37319 H 67.42069137195864 74.69137321222973 138.44100292617637 H 0.0 **** 0.06
37320 H 68.96339418182107 74.50012526045474 137.57277096299205 H 0.0 **** 0.06
37321 C 96.99798334594102 84.55740004007052 71.7759038841052 C 0.0 **** -0.24
37322 H 98.07945874689067 84.63783293568372 71.8839889759454 H 0.0 **** 0.06
37323 H 96.58334483991777 84.04484427305007 72.64455654150532 H 0.0 **** 0.06
37324 H 96.76427729443277 83.99090116852827 70.87389420971563 H 0.0 **** 0.06
37325 H 96.56535865168554 85.55532387572586 71.70168254598688 H 0.0 **** 0.06
37326 C 33.9300757325351 57.04195112919871 22.943639049020582 C 0.0 **** -0.24
37327 H 33.11264650190043 57.00322065441003 23.664639300126936 H 0.0 **** 0.06
37328 H 33.54242474957891 57.34536045121075 21.9710716219495 H 0.0 **** 0.06
37329 H 34.38767245362476 56.055982406694 22.86197008471433 H 0.0 **** 0.06
37330 H 34.67570802075937 57.762337275373625 23.27927451278969 H 0.0 **** 0.06
37331 C 107.72893324760653 50.12528612238637 107.81525873487693 C 0.0 **** -0.24
37332 H 108.29368702244992 49.196264803997195 107.89946386870456 H 0.0 **** 0.06
37333 H 108.35548998554012 50.95925903802093 108.13180846977842 H 0.0 **** 0.06
37334 H 106.84568540134566 50.0716319679574 108.45243407128778 H 0.0 **** 0.06
37335 H 107.42223836110568 50.272108774238745 106.77969403481568 H 0.0 **** 0.06
37336 C 58.308790670623466 50.87998022499943 123.60541990428628 C 0.0 **** -0.24
37337 H 59.00927051858514 50.2415653022245 123.06752470775808 H 0.0 **** 0.06
37338 H 58.6812434415524 51.05736219572398 124.61451726433707 H 0.0 **** 0.06
37339 H 57.337415112961125 50.38990859448765 123.65711270424845 H 0.0 **** 0.06
37340 H 58.20964835508212 51.83068274337106 123.08243770694025 H 0.0 **** 0.06
37341 C 93.15551347042492 37.35368393999988 139.4128710437617 C 0.0 **** -0.24
37342 H 92.54491679262253 37.0875280322619 138.55019867481408 H 0.0 **** 0.06
37343 H 92.53178520433448 37.37213223761893 140.30667449742884 H 0.0 **** 0.06
37344 H 93.59633924544033 38.338357027774066 139.25658459894714 H 0.0 **** 0.06
37345 H 93.94879150886462 36.61583788978163 139.5376071939177 H 0.0 **** 0.06
37346 C 13.410358714875457 82.49488226953775 103.90061374341745 C 0.0 **** -0.24
37347 H 12.613237824261205 83.21668024349304 104.08183161337583 H 0.0 **** 0.06
37348 H 14.322337291846708 82.83077722690894 104.39496137864708 H 0.0 **** 0.06
37349 H 13.587028033688739 82.41060259419743 102.82926473527776 H 0.0 **** 0.06
37350 H 13.117737223158741 81.5236537087531 104.29840464341409 H 0.0 **** 0.06
37351 C 106.96896283378388 2.1696111925644743 145.47803139621726 C 0.0 **** -0.24
37352 H 106.69940450268453 1.9315318676261484 144.44878241586017 H 0.0 **** 0.06
37353 H 106.0996455518497 2.0337322877121267 146.12151899477863 H 0.0 **** 0.06
37354 H 107.30470828506455 3.2052937806211617 145.53425846817836 H 0.0 **** 0.06
37355 H 107.77123992254607 1.5095573475111905 145.80522432927376 H 0.0 **** 0.06
37356 C 126.6882325388216 141.87659091257154 6.038935795770755 C 0.0 **** -0.24
37357 H 125.91637437035372 142.64429026228953 6.092513478369796 H 0.0 **** 0.06
37358 H 127.32410239898994 141.94039522693112 6.922374226071241 H 0.0 **** 0.06
37359 H 127.29158697629221 142.02950537041158 5.144261286640216 H 0.0 **** 0.06
37360 H 126.21933228797118 140.89360219894394 5.997371032412502 H 0.0 **** 0.06
37361 C 15.702092450583109 76.50931114986582 96.4005204805892 C 0.0 **** -0.24
37362 H 14.846609196996866 75.85515241461053 96.56984166446622 H 0.0 **** 0.06
37363 H 15.983638166556489 76.4741813260801 95.34841270451375 H 0.0 **** 0.06
37364 H 16.540397189861892 76.17717029192141 97.01287455195583 H 0.0 **** 0.06
37365 H 15.43723214524428 77.53172518815194 96.67184038917543 H 0.0 **** 0.06
37366 C 18.669866530710777 80.71545456716737 18.79966923186106 C 0.0 **** -0.24
37367 H 18.72552739930927 79.74542463505878 19.29377721516113 H 0.0 **** 0.06
37368 H 18.20598425397813 81.43789329889412 19.471316024103814 H 0.0 **** 0.06
37369 H 18.072521005032144 80.62715663737629 17.892446174302137 H 0.0 **** 0.06
37370 H 19.674140136183752 81.0507811971456 18.542872769981102 H 0.0 **** 0.06
37371 C 119.06023433593766 33.08835415557951 98.90953866349366 C 0.0 **** -0.24
37372 H 119.02340355077554 32.35295959514747 99.7132931245659 H 0.0 **** 0.06
37373 H 120.05028584722312 33.07693947461037 98.45245480142853 H 0.0 **** 0.06
37374 H 118.85852456884892 34.07942063236641 99.31600798030593 H 0.0 **** 0.06
37375 H 118.3098840843977 32.844009222648054 98.15855405028503 H 0.0 **** 0.06
37376 C 5.046307341390737 38.07207284011278 21.309698264205707 C 0.0 **** -0.24
37377 H 4.337595149148278 37.25701943992164 21.454901090945242 H 0.0 **** 0.06
37378 H 4.747143917001839 38.663360495428066 20.44401930013035 H 0.0 **** 0.06
37379 H 6.041922116087299 37.66190280816797 21.143961691029034 H 0.0 **** 0.06
37380 H 5.057252022120604 38.70478678655547 22.197243291729706 H 0.0 **** 0.06
37381 C 123.82975736924735 14.17504429390334 43.50174488327946 C 0.0 **** -0.24
37382 H 123.5636357054302 14.606547260219713 42.53683175493859 H 0.0 **** 0.06
37383 H 123.41912592294673 14.792803563917431 44.3008138568936 H 0.0 **** 0.06
37384 H 124.91499345570338 14.133346122611243 43.59428024309594 H 0.0 **** 0.06
37385 H 123.41891065157849 13.167351547301251 43.574424051261104 H 0.0 **** 0.06
37386 C 1.2981396769416733 97.41434322084032 2.4809592478013087 C 0.0 **** -0.24
37387 H 1.9618605131805396 97.89774866004987 1.7638590149123274 H 0.0 **** 0.06
37388 H 0.2718958158185103 97.4612531718368 2.115372143284958 H 0.0 **** 0.06
37389 H 1.3664109540837899 97.92570255855767 3.441538026457522 H 0.0 **** 0.06
37390 H 1.5931713847196534 96.3720589971914 2.6029256060408557 H 0.0 **** 0.06
37391 C 9.34906979067992 69.82155444614435 87.96529082084069 C 0.0 **** -0.24
37392 H 8.524911089206995 69.5032639274747 87.32604554393399 H 0.0 **** 0.06
37393 H 9.553605341175086 70.87857098747787 87.79531102085687 H 0.0 **** 0.06
37394 H 10.237978723594978 69.23624014644881 87.72974468581636 H 0.0 **** 0.06
37395 H 9.078714133656462 69.66595849178537 89.0097708925402 H 0.0 **** 0.06
37396 C 73.11567568008824 115.79100744539075 79.17847602566785 C 0.0 **** -0.24
37397 H 72.85970284659827 116.64186190275551 78.5470098724389 H 0.0 **** 0.06
37398 H 74.07632451670723 115.38219087368675 78.86447006942669 H 0.0 **** 0.06
37399 H 72.34615287672351 115.02480776557702 79.08533852826743 H 0.0 **** 0.06
37400 H 73.18118999846227 116.11705448781346 80.21710644656895 H 0.0 **** 0.06
37401 C 70.43915145304605 110.2787874221574 36.357331955520976 C 0.0 **** -0.24
37402 H 69.79487664595355 109.761599339584 37.06985876288235 H 0.0 **** 0.06
37403 H 69.87269970441575 111.06510635649886 35.85888454094251 H 0.0 **** 0.06
37404 H 70.80469593674283 109.56719828094958 35.61688882678109 H 0.0 **** 0.06
37405 H 71.28499103438834 110.71847574877467 36.88667826252589 H 0.0 **** 0.06
37406 C 42.54733966131272 144.71713485711317 126.27281492277666 C 0.0 **** -0.24
37407 H 43.62464659219256 144.7081874401902 126.43883788076013 H 0.0 **** 0.06
37408 H 42.07753731716127 145.41268573797745 126.96861852280477 H 0.0 **** 0.06
37409 H 42.147269107852765 143.7155139665616 126.43359143239914 H 0.0 **** 0.06
37410 H 42.339957781363296 145.03029952481535 125.24946036383392 H 0.0 **** 0.06
37411 C 97.91133896869582 75.2161513668174 134.50601435468676 C 0.0 **** -0.24
37412 H 97.22376232981824 75.61963195941891 135.249276535133 H 0.0 **** 0.06
37413 H 97.64467566194054 74.18102220135714 134.28862239327813 H 0.0 **** 0.06
37414 H 98.9290277782776 75.25672216522675 134.89253774847674 H 0.0 **** 0.06
37415 H 97.84587639942774 75.80732710190011 133.59222946306073 H 0.0 **** 0.06
37416 C 59.34756881038018 65.79231486218735 35.42309822066471 C 0.0 **** -0.24
37417 H 58.61931432920281 65.47539948511235 36.169309939853434 H 0.0 **** 0.06
37418 H 58.96207339616005 66.65788258226158 34.8832429118267 H 0.0 **** 0.06
37419 H 59.52810658718319 64.97723661546401 34.722668755929675 H 0.0 **** 0.06
37420 H 60.28145323445884 66.05931261947586 35.91764141600535 H 0.0 **** 0.06
37421 C 6.653281355955642 11.35103933599288 103.04511995201551 C 0.0 **** -0.24
37422 H 5.661661971185225 11.776410315775706 103.20406800449786 H 0.0 **** 0.06
37423 H 7.361882542298275 11.817100784774254 103.72970448000746 H 0.0 **** 0.06
37424 H 6.966004721921138 11.533018205198402 102.0171974552947 H 0.0 **** 0.06
37425 H 6.621049690117417 10.277053081018607 103.23102202688034 H 0.0 **** 0.06
37426 C 44.90833306174794 98.72519030106032 79.19813933459015 C 0.0 **** -0.24
37427 H 44.72599857988631 99.02279916968426 78.16557311858953 H 0.0 **** 0.06
37428 H 44.60054448601396 97.68837339061768 79.33639567412567 H 0.0 **** 0.06
37429 H 44.3362508918521 99.36726116396878 79.86719527660114 H 0.0 **** 0.06
37430 H 45.97061193213305 98.82226300984009 79.42139562166449 H 0.0 **** 0.06
37431 C 64.4706823689083 125.91862944596333 105.56376356622452 C 0.0 **** -0.24
37432 H 64.30750362181536 126.96572867738547 105.30777174377452 H 0.0 **** 0.06
37433 H 64.98379541604939 125.42017245571228 104.74024574261479 H 0.0 **** 0.06
37434 H 63.5102389576095 125.43426818770052 105.74027284767719 H 0.0 **** 0.06
37435 H 65.0808173890396 125.85672621177244 106.46389914839291 H 0.0 **** 0.06
37436 C 52.7870461602995 60.28588642928423 79.12615166482172 C 0.0 **** -0.24
37437 H 53.089387517197565 59.569188682176346 79.88988718893003 H 0.0 **** 0.06
37438 H 52.9792892970097 61.2985571556228 79.48173218669393 H 0.0 **** 0.06
37439 H 51.72264684300697 60.169056440944175 78.91966245692237 H 0.0 **** 0.06
37440 H 53.35610901117974 60.107056816951015 78.2139048047263 H 0.0 **** 0.06
37441 C 95.9751032232521 103.81397803474903 130.21677923721313 C 0.0 **** -0.24
37442 H 96.73922668609802 103.09310217327706 129.92702382967047 H 0.0 **** 0.06
37443 H 96.3781576295495 104.82408489717241 130.13368148080318 H 0.0 **** 0.06
37444 H 95.67231706639127 103.6265996962753 131.24727514915705 H 0.0 **** 0.06
37445 H 95.11086857468919 103.71183848259196 129.56008151249213 H 0.0 **** 0.06
37446 C 71.94113085172187 133.22699632346516 68.62621675944561 C 0.0 **** -0.24
37447 H 71.47015467932617 133.05687395355653 69.59501435146038 H 0.0 **** 0.06
37448 H 71.19414258271136 133.13655094754873 67.83831765021651 H 0.0 **** 0.06
37449 H 72.72689020329499 132.48703932625907 68.46975002695288 H 0.0 **** 0.06
37450 H 72.37432931984763 134.2266318281873 68.60447254481474 H 0.0 **** 0.06
37451 C 90.03041411324688 114.03118298038632 34.687216297842554 C 0.0 **** -0.24
37452 H 90.3332996135714 114.34035300788966 33.68729823963508 H 0.0 **** 0.06
37453 H 89.05597764363654 114.4618920786946 34.92091739643317 H 0.0 **** 0.06
37454 H 90.76496646565835 114.37812790794769 35.41295929049929 H 0.0 **** 0.06
37455 H 89.9655298117928 112.94328030028717 34.727150448755 H 0.0 **** 0.06
37456 C 20.74266593731283 84.38723624906905 90.23308016749644 C 0.0 **** -0.24
37457 H 20.140276677280887 83.80011331860025 90.9264529036493 H 0.0 **** 0.06
37458 H 21.072881901463845 85.30253435849389 90.72401058237284 H 0.0 **** 0.06
37459 H 20.144415454062 84.63939431955862 89.3572956163911 H 0.0 **** 0.06
37460 H 21.61129636810388 83.8057740544522 89.92527543236307 H 0.0 **** 0.06
37461 C 46.21469380694644 40.38140861378176 54.74874317979848 C 0.0 **** -0.24
37462 H 46.11475754027465 40.89226060597505 53.79101676519505 H 0.0 **** 0.06
37463 H 47.21776343706448 39.963941349409765 54.834102887901025 H 0.0 **** 0.06
37464 H 45.47911070088843 39.57995555563322 54.81207844897975 H 0.0 **** 0.06
37465 H 46.047658927808925 41.09302618559454 55.55814588252622 H 0.0 **** 0.06
37466 C 132.8603546001189 143.89714020765535 67.10253526175498 C 0.0 **** -0.24
37467 H 133.6470375390142 143.142277864681 67.09191811976606 H 0.0 **** 0.06
37468 H 132.71928694576164 144.2587555406087 68.12107007375984 H 0.0 **** 0.06
37469 H 131.9316785078106 143.45882071251592 66.73921093673518 H 0.0 **** 0.06
37470 H 133.1465458294398 144.72829427350234 66.45811739196655 H 0.0 **** 0.06
37471 C 129.56392092138088 98.7825720274558 21.08519339511463 C 0.0 **** -0.24
37472 H 129.12078515602167 99.76625482886804 20.931139118984163 H 0.0 **** 0.06
37473 H 129.05472781990386 98.05238161238051 20.457000594305356 H 0.0 **** 0.06
37474 H 129.46104861533763 98.49725902598178 22.13182592218132 H 0.0 **** 0.06
37475 H 130.62095532960132 98.81600165946028 20.820583056131113 H 0.0 **** 0.06
37476 C 145.01467892320835 2.0487746606711674 4.265871569299556 C 0.0 **** -0.24
37477 H 145.00269141666215 3.1066011513838454 4.527230102950586 H 0.0 **** 0.06
37478 H 145.81200871588084 1.5472701350576834 4.816565144599977 H 0.0 **** 0.06
37479 H 145.18895006658812 1.9409998118231115 3.1951082596913167 H 0.0 **** 0.06
37480 H 144.0566924322542 1.599652452817402 4.5244328645109135 H 0.0 **** 0.06
37481 C 100.87453358430758 41.362656538452626 100.00941153529578 C 0.0 **** -0.24
37482 H 100.67796155864508 42.315476841262125 100.5006200370407 H 0.0 **** 0.06
37483 H 101.39304996813263 41.54047801582006 99.06704313740664 H 0.0 **** 0.06
37484 H 99.93084592516199 40.85335920895584 99.8161249783995 H 0.0 **** 0.06
37485 H 101.4971264944542 40.74367631851537 100.65577866896717 H 0.0 **** 0.06
37486 C 120.20083172753495 129.91788555266672 122.40532950731922 C 0.0 **** -0.24
37487 H 120.27910020533606 131.00423362027692 122.44273003166843 H 0.0 **** 0.06
37488 H 121.18320607775767 129.48988083293267 122.20204016521306 H 0.0 **** 0.06
37489 H 119.50849183574464 129.630524800377 121.6149099312044 H 0.0 **** 0.06
37490 H 119.83312317819407 129.5476188258891 123.36270294740338 H 0.0 **** 0.06
37491 C 82.34247822469955 93.65791895743143 77.37974447404443 C 0.0 **** -0.24
37492 H 81.54842029229913 93.94730237427557 76.69135567652643 H 0.0 **** 0.06
37493 H 82.1920252710683 92.62501926238042 77.69425367838258 H 0.0 **** 0.06
37494 H 82.32108108342464 94.31095044791725 78.25316705462228 H 0.0 **** 0.06
37495 H 83.30711016417835 93.75021547275396 76.88124528023059 H 0.0 **** 0.06
37496 C 95.43891305560848 112.29431077113698 40.046784466281366 C 0.0 **** -0.24
37497 H 95.45919701324968 111.59275526114762 39.212843628119685 H 0.0 **** 0.06
37498 H 95.23765026113833 113.29771046396202 39.67181215724926 H 0.0 **** 0.06
37499 H 96.40407992941613 112.28261890567397 40.553689906929804 H 0.0 **** 0.06
37500 H 94.65663479899723 112.00392983245986 40.74727535598197 H 0.0 **** 0.06
@<TRIPOS>BOND
1 1 2 28
2 1 3 28
3 1 4 28
4 1 5 28
5 6 7 28
6 6 8 28
7 6 9 28
8 6 10 28
9 11 12 28
10 11 13 28
11 11 14 28
12 11 15 28
13 16 17 28
14 16 18 28
15 16 19 28
16 16 20 28
17 21 22 28
18 21 23 28
19 21 24 28
20 21 25 28
21 26 27 28
22 26 28 28
23 26 29 28
24 26 30 28
25 31 32 28
26 31 33 28
27 31 34 28
28 31 35 28
29 36 37 28
30 36 38 28
31 36 39 28
32 36 40 28
33 41 42 28
34 41 43 28
35 41 44 28
36 41 45 28
37 46 47 28
38 46 48 28
39 46 49 28
40 46 50 28
41 51 52 28
42 51 53 28
43 51 54 28
44 51 55 28
45 56 57 28
46 56 58 28
47 56 59 28
48 56 60 28
49 61 62 28
50 61 63 28
51 61 64 28
52 61 65 28
53 66 67 28
54 66 68 28
55 66 69 28
56 66 70 28
57 71 72 28
58 71 73 28
59 71 74 28
60 71 75 28
61 76 77 28
62 76 78 28
63 76 79 28
64 76 80 28
65 81 82 28
66 81 83 28
67 81 84 28
68 81 85 28
69 86 87 28
70 86 88 28
71 86 89 28
72 86 90 28
73 91 92 28
74 91 93 28
75 91 94 28
76 91 95 28
77 96 97 28
78 96 98 28
79 96 99 28
80 96 100 28
81 101 102 28
82 101 103 28
83 101 104 28
84 101 105 28
85 106 107 28
86 106 108 28
87 106 109 28
88 106 110 28
89 111 112 28
90 111 113 28
91 111 114 28
92 111 115 28
93 116 117 28
94 116 118 28
95 116 119 28
96 116 120 28
97 121 122 28
98 121 123 28
99 121 124 28
100 121 125 28
101 126 127 28
102 126 128 28
103 126 129 28
104 126 130 28
105 131 132 28
106 131 133 28
107 131 134 28
108 131 135 28
109 136 137 28
110 136 138 28
111 136 139 28
112 136 140 28
113 141 142 28
114 141 143 28
115 141 144 28
116 141 145 28
117 146 147 28
118 146 148 28
119 146 149 28
120 146 150 28
121 151 152 28
122 151 153 28
123 151 154 28
124 151 155 28
125 156 157 28
126 156 158 28
127 156 159 28
128 156 160 28
129 161 162 28
130 161 163 28
131 161 164 28
132 161 165 28
133 166 167 28
134 166 168 28
135 166 169 28
136 166 170 28
137 171 172 28
138 171 173 28
139 171 174 28
140 171 175 28
141 176 177 28
142 176 178 28
143 176 179 28
144 176 180 28
145 181 182 28
146 181 183 28
147 181 184 28
148 181 185 28
149 186 187 28
150 186 188 28
151 186 189 28
152 186 190 28
153 191 192 28
154 191 193 28
155 191 194 28
156 191 195 28
157 196 197 28
158 196 198 28
159 196 199 28
160 196 200 28
161 201 202 28
162 201 203 28
163 201 204 28
164 201 205 28
165 206 207 28
166 206 208 28
167 206 209 28
168 206 210 28
169 211 212 28
170 211 213 28
171 211 214 28
172 211 215 28
173 216 217 28
174 216 218 28
175 216 219 28
176 216 220 28
177 221 222 28
178 221 223 28
179 221 224 28
180 221 225 28
181 226 227 28
182 226 228 28
183 226 229 28
184 226 230 28
185 231 232 28
186 231 233 28
187 231 234 28
188 231 235 28
189 236 237 28
190 236 238 28
191 236 239 28
192 236 240 28
193 241 242 28
194 241 243 28
195 241 244 28
196 241 245 28
197 246 247 28
198 246 248 28
199 246 249 28
200 246 250 28
201 251 252 28
202 251 253 28
203 251 254 28
204 251 255 28
205 256 257 28
206 256 258 28
207 256 259 28
208 256 260 28
209 261 262 28
210 261 263 28
211 261 264 28
212 261 265 28
213 266 267 28
214 266 268 28
215 266 269 28
216 266 270 28
217 271 272 28
218 271 273 28
219 271 274 28
220 271 275 28
221 276 277 28
222 276 278 28
223 276 279 28
224 276 280 28
225 281 282 28
226 281 283 28
227 281 284 28
228 281 285 28
229 286 287 28
230 286 288 28
231 286 289 28
232 286 290 28
233 291 292 28
234 291 293 28
235 291 294 28
236 291 295 28
237 296 297 28
238 296 298 28
239 296 299 28
240 296 300 28
241 301 302 28
242 301 303 28
243 301 304 28
244 301 305 28
245 306 307 28
246 306 308 28
247 306 309 28
248 306 310 28
249 311 312 28
250 311 313 28
251 311 314 28
252 311 315 28
253 316 317 28
254 316 318 28
255 316 319 28
256 316 320 28
257 321 322 28
258 321 323 28
259 321 324 28
260 321 325 28
261 326 327 28
262 326 328 28
263 326 329 28
264 326 330 28
265 331 332 28
266 331 333 28
267 331 334 28
268 331 335 28
269 336 337 28
270 336 338 28
271 336 339 28
272 336 340 28
273 341 342 28
274 341 343 28
275 341 344 28
276 341 345 28
277 346 347 28
278 346 348 28
279 346 349 28
280 346 350 28
281 351 352 28
282 351 353 28
283 351 354 28
284 351 355 28
285 356 357 28
286 356 358 28
287 356 359 28
288 356 360 28
289 361 362 28
290 361 363 28
291 361 364 28
292 361 365 28
293 366 367 28
294 366 368 28
295 366 369 28
296 366 370 28
297 371 372 28
298 371 373 28
299 371 374 28
300 371 375 28
301 376 377 28
302 376 378 28
303 376 379 28
304 376 380 28
305 381 382 28
306 381 383 28
307 381 384 28
308 381 385 28
309 386 387 28
310 386 388 28
311 386 389 28
312 386 390 28
313 391 392 28
314 391 393 28
315 391 394 28
316 391 395 28
317 396 397 28
318 396 398 28
319 396 399 28
320 396 400 28
321 401 402 28
322 401 403 28
323 401 404 28
324 401 405 28
325 406 407 28
326 406 408 28
327 406 409 28
328 406 410 28
329 411 412 28
330 411 413 28
331 411 414 28
332 411 415 28
333 416 417 28
334 416 418 28
335 416 419 28
336 416 420 28
337 421 422 28
338 421 423 28
339 421 424 28
340 421 425 28
341 426 427 28
342 426 428 28
343 426 429 28
344 426 430 28
345 431 432 28
346 431 433 28
347 431 434 28
348 431 435 28
349 436 437 28
350 436 438 28
351 436 439 28
352 436 440 28
353 441 442 28
354 441 443 28
355 441 444 28
356 441 445 28
357 446 447 28
358 446 448 28
359 446 449 28
360 446 450 28
361 451 452 28
362 451 453 28
363 451 454 28
364 451 455 28
365 456 457 28
366 456 458 28
367 456 459 28
368 456 460 28
369 461 462 28
370 461 463 28
371 461 464 28
372 461 465 28
373 466 467 28
374 466 468 28
375 466 469 28
376 466 470 28
377 471 472 28
378 471 473 28
379 471 474 28
380 471 475 28
381 476 477 28
382 476 478 28
383 476 479 28
384 476 480 28
385 481 482 28
386 481 483 28
387 481 484 28
388 481 485 28
389 486 487 28
390 486 488 28
391 486 489 28
392 486 490 28
393 491 492 28
394 491 493 28
395 491 494 28
396 491 495 28
397 496 497 28
398 496 498 28
399 496 499 28
400 496 500 28
401 501 502 28
402 501 503 28
403 501 504 28
404 501 505 28
405 506 507 28
406 506 508 28
407 506 509 28
408 506 510 28
409 511 512 28
410 511 513 28
411 511 514 28
412 511 515 28
413 516 517 28
414 516 518 28
415 516 519 28
416 516 520 28
417 521 522 28
418 521 523 28
419 521 524 28
420 521 525 28
421 526 527 28
422 526 528 28
423 526 529 28
424 526 530 28
425 531 532 28
426 531 533 28
427 531 534 28
428 531 535 28
429 536 537 28
430 536 538 28
431 536 539 28
432 536 540 28
433 541 542 28
434 541 543 28
435 541 544 28
436 541 545 28
437 546 547 28
438 546 548 28
439 546 549 28
440 546 550 28
441 551 552 28
442 551 553 28
443 551 554 28
444 551 555 28
445 556 557 28
446 556 558 28
447 556 559 28
448 556 560 28
449 561 562 28
450 561 563 28
451 561 564 28
452 561 565 28
453 566 567 28
454 566 568 28
455 566 569 28
456 566 570 28
457 571 572 28
458 571 573 28
459 571 574 28
460 571 575 28
461 576 577 28
462 576 578 28
463 576 579 28
464 576 580 28
465 581 582 28
466 581 583 28
467 581 584 28
468 581 585 28
469 586 587 28
470 586 588 28
471 586 589 28
472 586 590 28
473 591 592 28
474 591 593 28
475 591 594 28
476 591 595 28
477 596 597 28
478 596 598 28
479 596 599 28
480 596 600 28
481 601 602 28
482 601 603 28
483 601 604 28
484 601 605 28
485 606 607 28
486 606 608 28
487 606 609 28
488 606 610 28
489 611 612 28
490 611 613 28
491 611 614 28
492 611 615 28
493 616 617 28
494 616 618 28
495 616 619 28
496 616 620 28
497 621 622 28
498 621 623 28
499 621 624 28
500 621 625 28
501 626 627 28
502 626 628 28
503 626 629 28
504 626 630 28
505 631 632 28
506 631 633 28
507 631 634 28
508 631 635 28
509 636 637 28
510 636 638 28
511 636 639 28
512 636 640 28
513 641 642 28
514 641 643 28
515 641 644 28
516 641 645 28
517 646 647 28
518 646 648 28
519 646 649 28
520 646 650 28
521 651 652 28
522 651 653 28
523 651 654 28
524 651 655 28
525 656 657 28
526 656 658 28
527 656 659 28
528 656 660 28
529 661 662 28
530 661 663 28
531 661 664 28
532 661 665 28
533 666 667 28
534 666 668 28
535 666 669 28
536 666 670 28
537 671 672 28
538 671 673 28
539 671 674 28
540 671 675 28
541 676 677 28
542 676 678 28
543 676 679 28
544 676 680 28
545 681 682 28
546 681 683 28
547 681 684 28
548 681 685 28
549 686 687 28
550 686 688 28
551 686 689 28
552 686 690 28
553 691 692 28
554 691 693 28
555 691 694 28
556 691 695 28
557 696 697 28
558 696 698 28
559 696 699 28
560 696 700 28
561 701 702 28
562 701 703 28
563 701 704 28
564 701 705 28
565 706 707 28
566 706 708 28
567 706 709 28
568 706 710 28
569 711 712 28
570 711 713 28
571 711 714 28
572 711 715 28
573 716 717 28
574 716 718 28
575 716 719 28
576 716 720 28
577 721 722 28
578 721 723 28
579 721 724 28
580 721 725 28
581 726 727 28
582 726 728 28
583 726 729 28
584 726 730 28
585 731 732 28
586 731 733 28
587 731 734 28
588 731 735 28
589 736 737 28
590 736 738 28
591 736 739 28
592 736 740 28
593 741 742 28
594 741 743 28
595 741 744 28
596 741 745 28
597 746 747 28
598 746 748 28
599 746 749 28
600 746 750 28
601 751 752 28
602 751 753 28
603 751 754 28
604 751 755 28
605 756 757 28
606 756 758 28
607 756 759 28
608 756 760 28
609 761 762 28
610 761 763 28
611 761 764 28
612 761 765 28
613 766 767 28
614 766 768 28
615 766 769 28
616 766 770 28
617 771 772 28
618 771 773 28
619 771 774 28
620 771 775 28
621 776 777 28
622 776 778 28
623 776 779 28
624 776 780 28
625 781 782 28
626 781 783 28
627 781 784 28
628 781 785 28
629 786 787 28
630 786 788 28
631 786 789 28
632 786 790 28
633 791 792 28
634 791 793 28
635 791 794 28
636 791 795 28
637 796 797 28
638 796 798 28
639 796 799 28
640 796 800 28
641 801 802 28
642 801 803 28
643 801 804 28
644 801 805 28
645 806 807 28
646 806 808 28
647 806 809 28
648 806 810 28
649 811 812 28
650 811 813 28
651 811 814 28
652 811 815 28
653 816 817 28
654 816 818 28
655 816 819 28
656 816 820 28
657 821 822 28
658 821 823 28
659 821 824 28
660 821 825 28
661 826 827 28
662 826 828 28
663 826 829 28
664 826 830 28
665 831 832 28
666 831 833 28
667 831 834 28
668 831 835 28
669 836 837 28
670 836 838 28
671 836 839 28
672 836 840 28
673 841 842 28
674 841 843 28
675 841 844 28
676 841 845 28
677 846 847 28
678 846 848 28
679 846 849 28
680 846 850 28
681 851 852 28
682 851 853 28
683 851 854 28
684 851 855 28
685 856 857 28
686 856 858 28
687 856 859 28
688 856 860 28
689 861 862 28
690 861 863 28
691 861 864 28
692 861 865 28
693 866 867 28
694 866 868 28
695 866 869 28
696 866 870 28
697 871 872 28
698 871 873 28
699 871 874 28
700 871 875 28
701 876 877 28
702 876 878 28
703 876 879 28
704 876 880 28
705 881 882 28
706 881 883 28
707 881 884 28
708 881 885 28
709 886 887 28
710 886 888 28
711 886 889 28
712 886 890 28
713 891 892 28
714 891 893 28
715 891 894 28
716 891 895 28
717 896 897 28
718 896 898 28
719 896 899 28
720 896 900 28
721 901 902 28
722 901 903 28
723 901 904 28
724 901 905 28
725 906 907 28
726 906 908 28
727 906 909 28
728 906 910 28
729 911 912 28
730 911 913 28
731 911 914 28
732 911 915 28
733 916 917 28
734 916 918 28
735 916 919 28
736 916 920 28
737 921 922 28
738 921 923 28
739 921 924 28
740 921 925 28
741 926 927 28
742 926 928 28
743 926 929 28
744 926 930 28
745 931 932 28
746 931 933 28
747 931 934 28
748 931 935 28
749 936 937 28
750 936 938 28
751 936 939 28
752 936 940 28
753 941 942 28
754 941 943 28
755 941 944 28
756 941 945 28
757 946 947 28
758 946 948 28
759 946 949 28
760 946 950 28
761 951 952 28
762 951 953 28
763 951 954 28
764 951 955 28
765 956 957 28
766 956 958 28
767 956 959 28
768 956 960 28
769 961 962 28
770 961 963 28
771 961 964 28
772 961 965 28
773 966 967 28
774 966 968 28
775 966 969 28
776 966 970 28
777 971 972 28
778 971 973 28
779 971 974 28
780 971 975 28
781 976 977 28
782 976 978 28
783 976 979 28
784 976 980 28
785 981 982 28
786 981 983 28
787 981 984 28
788 981 985 28
789 986 987 28
790 986 988 28
791 986 989 28
792 986 990 28
793 991 992 28
794 991 993 28
795 991 994 28
796 991 995 28
797 996 997 28
798 996 998 28
799 996 999 28
800 996 1000 28
801 1001 1002 28
802 1001 1003 28
803 1001 1004 28
804 1001 1005 28
805 1006 1007 28
806 1006 1008 28
807 1006 1009 28
808 1006 1010 28
809 1011 1012 28
810 1011 1013 28
811 1011 1014 28
812 1011 1015 28
813 1016 1017 28
814 1016 1018 28
815 1016 1019 28
816 1016 1020 28
817 1021 1022 28
818 1021 1023 28
819 1021 1024 28
820 1021 1025 28
821 1026 1027 28
822 1026 1028 28
823 1026 1029 28
824 1026 1030 28
825 1031 1032 28
826 1031 1033 28
827 1031 1034 28
828 1031 1035 28
829 1036 1037 28
830 1036 1038 28
831 1036 1039 28
832 1036 1040 28
833 1041 1042 28
834 1041 1043 28
835 1041 1044 28
836 1041 1045 28
837 1046 1047 28
838 1046 1048 28
839 1046 1049 28
840 1046 1050 28
841 1051 1052 28
842 1051 1053 28
843 1051 1054 28
844 1051 1055 28
845 1056 1057 28
846 1056 1058 28
847 1056 1059 28
848 1056 1060 28
849 1061 1062 28
850 1061 1063 28
851 1061 1064 28
852 1061 1065 28
853 1066 1067 28
854 1066 1068 28
855 1066 1069 28
856 1066 1070 28
857 1071 1072 28
858 1071 1073 28
859 1071 1074 28
860 1071 1075 28
861 1076 1077 28
862 1076 1078 28
863 1076 1079 28
864 1076 1080 28
865 1081 1082 28
866 1081 1083 28
867 1081 1084 28
868 1081 1085 28
869 1086 1087 28
870 1086 1088 28
871 1086 1089 28
872 1086 1090 28
873 1091 1092 28
874 1091 1093 28
875 1091 1094 28
876 1091 1095 28
877 1096 1097 28
878 1096 1098 28
879 1096 1099 28
880 1096 1100 28
881 1101 1102 28
882 1101 1103 28
883 1101 1104 28
884 1101 1105 28
885 1106 1107 28
886 1106 1108 28
887 1106 1109 28
888 1106 1110 28
889 1111 1112 28
890 1111 1113 28
891 1111 1114 28
892 1111 1115 28
893 1116 1117 28
894 1116 1118 28
895 1116 1119 28
896 1116 1120 28
897 1121 1122 28
898 1121 1123 28
899 1121 1124 28
900 1121 1125 28
901 1126 1127 28
902 1126 1128 28
903 1126 1129 28
904 1126 1130 28
905 1131 1132 28
906 1131 1133 28
907 1131 1134 28
908 1131 1135 28
909 1136 1137 28
910 1136 1138 28
911 1136 1139 28
912 1136 1140 28
913 1141 1142 28
914 1141 1143 28
915 1141 1144 28
916 1141 1145 28
917 1146 1147 28
918 1146 1148 28
919 1146 1149 28
920 1146 1150 28
921 1151 1152 28
922 1151 1153 28
923 1151 1154 28
924 1151 1155 28
925 1156 1157 28
926 1156 1158 28
927 1156 1159 28
928 1156 1160 28
929 1161 1162 28
930 1161 1163 28
931 1161 1164 28
932 1161 1165 28
933 1166 1167 28
934 1166 1168 28
935 1166 1169 28
936 1166 1170 28
937 1171 1172 28
938 1171 1173 28
939 1171 1174 28
940 1171 1175 28
941 1176 1177 28
942 1176 1178 28
943 1176 1179 28
944 1176 1180 28
945 1181 1182 28
946 1181 1183 28
947 1181 1184 28
948 1181 1185 28
949 1186 1187 28
950 1186 1188 28
951 1186 1189 28
952 1186 1190 28
953 1191 1192 28
954 1191 1193 28
955 1191 1194 28
956 1191 1195 28
957 1196 1197 28
958 1196 1198 28
959 1196 1199 28
960 1196 1200 28
961 1201 1202 28
962 1201 1203 28
963 1201 1204 28
964 1201 1205 28
965 1206 1207 28
966 1206 1208 28
967 1206 1209 28
968 1206 1210 28
969 1211 1212 28
970 1211 1213 28
971 1211 1214 28
972 1211 1215 28
973 1216 1217 28
974 1216 1218 28
975 1216 1219 28
976 1216 1220 28
977 1221 1222 28
978 1221 1223 28
979 1221 1224 28
980 1221 1225 28
981 1226 1227 28
982 1226 1228 28
983 1226 1229 28
984 1226 1230 28
985 1231 1232 28
986 1231 1233 28
987 1231 1234 28
988 1231 1235 28
989 1236 1237 28
990 1236 1238 28
991 1236 1239 28
992 1236 1240 28
993 1241 1242 28
994 1241 1243 28
995 1241 1244 28
996 1241 1245 28
997 1246 1247 28
998 1246 1248 28
999 1246 1249 28
1000 1246 1250 28
1001 1251 1252 28
1002 1251 1253 28
1003 1251 1254 28
1004 1251 1255 28
1005 1256 1257 28
1006 1256 1258 28
1007 1256 1259 28
1008 1256 1260 28
1009 1261 1262 28
1010 1261 1263 28
1011 1261 1264 28
1012 1261 1265 28
1013 1266 1267 28
1014 1266 1268 28
1015 1266 1269 28
1016 1266 1270 28
1017 1271 1272 28
1018 1271 1273 28
1019 1271 1274 28
1020 1271 1275 28
1021 1276 1277 28
1022 1276 1278 28
1023 1276 1279 28
1024 1276 1280 28
1025 1281 1282 28
1026 1281 1283 28
1027 1281 1284 28
1028 1281 1285 28
1029 1286 1287 28
1030 1286 1288 28
1031 1286 1289 28
1032 1286 1290 28
1033 1291 1292 28
1034 1291 1293 28
1035 1291 1294 28
1036 1291 1295 28
1037 1296 1297 28
1038 1296 1298 28
1039 1296 1299 28
1040 1296 1300 28
1041 1301 1302 28
1042 1301 1303 28
1043 1301 1304 28
1044 1301 1305 28
1045 1306 1307 28
1046 1306 1308 28
1047 1306 1309 28
1048 1306 1310 28
1049 1311 1312 28
1050 1311 1313 28
1051 1311 1314 28
1052 1311 1315 28
1053 1316 1317 28
1054 1316 1318 28
1055 1316 1319 28
1056 1316 1320 28
1057 1321 1322 28
1058 1321 1323 28
1059 1321 1324 28
1060 1321 1325 28
1061 1326 1327 28
1062 1326 1328 28
1063 1326 1329 28
1064 1326 1330 28
1065 1331 1332 28
1066 1331 1333 28
1067 1331 1334 28
1068 1331 1335 28
1069 1336 1337 28
1070 1336 1338 28
1071 1336 1339 28
1072 1336 1340 28
1073 1341 1342 28
1074 1341 1343 28
1075 1341 1344 28
1076 1341 1345 28
1077 1346 1347 28
1078 1346 1348 28
1079 1346 1349 28
1080 1346 1350 28
1081 1351 1352 28
1082 1351 1353 28
1083 1351 1354 28
1084 1351 1355 28
1085 1356 1357 28
1086 1356 1358 28
1087 1356 1359 28
1088 1356 1360 28
1089 1361 1362 28
1090 1361 1363 28
1091 1361 1364 28
1092 1361 1365 28
1093 1366 1367 28
1094 1366 1368 28
1095 1366 1369 28
1096 1366 1370 28
1097 1371 1372 28
1098 1371 1373 28
1099 1371 1374 28
1100 1371 1375 28
1101 1376 1377 28
1102 1376 1378 28
1103 1376 1379 28
1104 1376 1380 28
1105 1381 1382 28
1106 1381 1383 28
1107 1381 1384 28
1108 1381 1385 28
1109 1386 1387 28
1110 1386 1388 28
1111 1386 1389 28
1112 1386 1390 28
1113 1391 1392 28
1114 1391 1393 28
1115 1391 1394 28
1116 1391 1395 28
1117 1396 1397 28
1118 1396 1398 28
1119 1396 1399 28
1120 1396 1400 28
1121 1401 1402 28
1122 1401 1403 28
1123 1401 1404 28
1124 1401 1405 28
1125 1406 1407 28
1126 1406 1408 28
1127 1406 1409 28
1128 1406 1410 28
1129 1411 1412 28
1130 1411 1413 28
1131 1411 1414 28
1132 1411 1415 28
1133 1416 1417 28
1134 1416 1418 28
1135 1416 1419 28
1136 1416 1420 28
1137 1421 1422 28
1138 1421 1423 28
1139 1421 1424 28
1140 1421 1425 28
1141 1426 1427 28
1142 1426 1428 28
1143 1426 1429 28
1144 1426 1430 28
1145 1431 1432 28
1146 1431 1433 28
1147 1431 1434 28
1148 1431 1435 28
1149 1436 1437 28
1150 1436 1438 28
1151 1436 1439 28
1152 1436 1440 28
1153 1441 1442 28
1154 1441 1443 28
1155 1441 1444 28
1156 1441 1445 28
1157 1446 1447 28
1158 1446 1448 28
1159 1446 1449 28
1160 1446 1450 28
1161 1451 1452 28
1162 1451 1453 28
1163 1451 1454 28
1164 1451 1455 28
1165 1456 1457 28
1166 1456 1458 28
1167 1456 1459 28
1168 1456 1460 28
1169 1461 1462 28
1170 1461 1463 28
1171 1461 1464 28
1172 1461 1465 28
1173 1466 1467 28
1174 1466 1468 28
1175 1466 1469 28
1176 1466 1470 28
1177 1471 1472 28
1178 1471 1473 28
1179 1471 1474 28
1180 1471 1475 28
1181 1476 1477 28
1182 1476 1478 28
1183 1476 1479 28
1184 1476 1480 28
1185 1481 1482 28
1186 1481 1483 28
1187 1481 1484 28
1188 1481 1485 28
1189 1486 1487 28
1190 1486 1488 28
1191 1486 1489 28
1192 1486 1490 28
1193 1491 1492 28
1194 1491 1493 28
1195 1491 1494 28
1196 1491 1495 28
1197 1496 1497 28
1198 1496 1498 28
1199 1496 1499 28
1200 1496 1500 28
1201 1501 1502 28
1202 1501 1503 28
1203 1501 1504 28
1204 1501 1505 28
1205 1506 1507 28
1206 1506 1508 28
1207 1506 1509 28
1208 1506 1510 28
1209 1511 1512 28
1210 1511 1513 28
1211 1511 1514 28
1212 1511 1515 28
1213 1516 1517 28
1214 1516 1518 28
1215 1516 1519 28
1216 1516 1520 28
1217 1521 1522 28
1218 1521 1523 28
1219 1521 1524 28
1220 1521 1525 28
1221 1526 1527 28
1222 1526 1528 28
1223 1526 1529 28
1224 1526 1530 28
1225 1531 1532 28
1226 1531 1533 28
1227 1531 1534 28
1228 1531 1535 28
1229 1536 1537 28
1230 1536 1538 28
1231 1536 1539 28
1232 1536 1540 28
1233 1541 1542 28
1234 1541 1543 28
1235 1541 1544 28
1236 1541 1545 28
1237 1546 1547 28
1238 1546 1548 28
1239 1546 1549 28
1240 1546 1550 28
1241 1551 1552 28
1242 1551 1553 28
1243 1551 1554 28
1244 1551 1555 28
1245 1556 1557 28
1246 1556 1558 28
1247 1556 1559 28
1248 1556 1560 28
1249 1561 1562 28
1250 1561 1563 28
1251 1561 1564 28
1252 1561 1565 28
1253 1566 1567 28
1254 1566 1568 28
1255 1566 1569 28
1256 1566 1570 28
1257 1571 1572 28
1258 1571 1573 28
1259 1571 1574 28
1260 1571 1575 28
1261 1576 1577 28
1262 1576 1578 28
1263 1576 1579 28
1264 1576 1580 28
1265 1581 1582 28
1266 1581 1583 28
1267 1581 1584 28
1268 1581 1585 28
1269 1586 1587 28
1270 1586 1588 28
1271 1586 1589 28
1272 1586 1590 28
1273 1591 1592 28
1274 1591 1593 28
1275 1591 1594 28
1276 1591 1595 28
1277 1596 1597 28
1278 1596 1598 28
1279 1596 1599 28
1280 1596 1600 28
1281 1601 1602 28
1282 1601 1603 28
1283 1601 1604 28
1284 1601 1605 28
1285 1606 1607 28
1286 1606 1608 28
1287 1606 1609 28
1288 1606 1610 28
1289 1611 1612 28
1290 1611 1613 28
1291 1611 1614 28
1292 1611 1615 28
1293 1616 1617 28
1294 1616 1618 28
1295 1616 1619 28
1296 1616 1620 28
1297 1621 1622 28
1298 1621 1623 28
1299 1621 1624 28
1300 1621 1625 28
1301 1626 1627 28
1302 1626 1628 28
1303 1626 1629 28
1304 1626 1630 28
1305 1631 1632 28
1306 1631 1633 28
1307 1631 1634 28
1308 1631 1635 28
1309 1636 1637 28
1310 1636 1638 28
1311 1636 1639 28
1312 1636 1640 28
1313 1641 1642 28
1314 1641 1643 28
1315 1641 1644 28
1316 1641 1645 28
1317 1646 1647 28
1318 1646 1648 28
1319 1646 1649 28
1320 1646 1650 28
1321 1651 1652 28
1322 1651 1653 28
1323 1651 1654 28
1324 1651 1655 28
1325 1656 1657 28
1326 1656 1658 28
1327 1656 1659 28
1328 1656 1660 28
1329 1661 1662 28
1330 1661 1663 28
1331 1661 1664 28
1332 1661 1665 28
1333 1666 1667 28
1334 1666 1668 28
1335 1666 1669 28
1336 1666 1670 28
1337 1671 1672 28
1338 1671 1673 28
1339 1671 1674 28
1340 1671 1675 28
1341 1676 1677 28
1342 1676 1678 28
1343 1676 1679 28
1344 1676 1680 28
1345 1681 1682 28
1346 1681 1683 28
1347 1681 1684 28
1348 1681 1685 28
1349 1686 1687 28
1350 1686 1688 28
1351 1686 1689 28
1352 1686 1690 28
1353 1691 1692 28
1354 1691 1693 28
1355 1691 1694 28
1356 1691 1695 28
1357 1696 1697 28
1358 1696 1698 28
1359 1696 1699 28
1360 1696 1700 28
1361 1701 1702 28
1362 1701 1703 28
1363 1701 1704 28
1364 1701 1705 28
1365 1706 1707 28
1366 1706 1708 28
1367 1706 1709 28
1368 1706 1710 28
1369 1711 1712 28
1370 1711 1713 28
1371 1711 1714 28
1372 1711 1715 28
1373 1716 1717 28
1374 1716 1718 28
1375 1716 1719 28
1376 1716 1720 28
1377 1721 1722 28
1378 1721 1723 28
1379 1721 1724 28
1380 1721 1725 28
1381 1726 1727 28
1382 1726 1728 28
1383 1726 1729 28
1384 1726 1730 28
1385 1731 1732 28
1386 1731 1733 28
1387 1731 1734 28
1388 1731 1735 28
1389 1736 1737 28
1390 1736 1738 28
1391 1736 1739 28
1392 1736 1740 28
1393 1741 1742 28
1394 1741 1743 28
1395 1741 1744 28
1396 1741 1745 28
1397 1746 1747 28
1398 1746 1748 28
1399 1746 1749 28
1400 1746 1750 28
1401 1751 1752 28
1402 1751 1753 28
1403 1751 1754 28
1404 1751 1755 28
1405 1756 1757 28
1406 1756 1758 28
1407 1756 1759 28
1408 1756 1760 28
1409 1761 1762 28
1410 1761 1763 28
1411 1761 1764 28
1412 1761 1765 28
1413 1766 1767 28
1414 1766 1768 28
1415 1766 1769 28
1416 1766 1770 28
1417 1771 1772 28
1418 1771 1773 28
1419 1771 1774 28
1420 1771 1775 28
1421 1776 1777 28
1422 1776 1778 28
1423 1776 1779 28
1424 1776 1780 28
1425 1781 1782 28
1426 1781 1783 28
1427 1781 1784 28
1428 1781 1785 28
1429 1786 1787 28
1430 1786 1788 28
1431 1786 1789 28
1432 1786 1790 28
1433 1791 1792 28
1434 1791 1793 28
1435 1791 1794 28
1436 1791 1795 28
1437 1796 1797 28
1438 1796 1798 28
1439 1796 1799 28
1440 1796 1800 28
1441 1801 1802 28
1442 1801 1803 28
1443 1801 1804 28
1444 1801 1805 28
1445 1806 1807 28
1446 1806 1808 28
1447 1806 1809 28
1448 1806 1810 28
1449 1811 1812 28
1450 1811 1813 28
1451 1811 1814 28
1452 1811 1815 28
1453 1816 1817 28
1454 1816 1818 28
1455 1816 1819 28
1456 1816 1820 28
1457 1821 1822 28
1458 1821 1823 28
1459 1821 1824 28
1460 1821 1825 28
1461 1826 1827 28
1462 1826 1828 28
1463 1826 1829 28
1464 1826 1830 28
1465 1831 1832 28
1466 1831 1833 28
1467 1831 1834 28
1468 1831 1835 28
1469 1836 1837 28
1470 1836 1838 28
1471 1836 1839 28
1472 1836 1840 28
1473 1841 1842 28
1474 1841 1843 28
1475 1841 1844 28
1476 1841 1845 28
1477 1846 1847 28
1478 1846 1848 28
1479 1846 1849 28
1480 1846 1850 28
1481 1851 1852 28
1482 1851 1853 28
1483 1851 1854 28
1484 1851 1855 28
1485 1856 1857 28
1486 1856 1858 28
1487 1856 1859 28
1488 1856 1860 28
1489 1861 1862 28
1490 1861 1863 28
1491 1861 1864 28
1492 1861 1865 28
1493 1866 1867 28
1494 1866 1868 28
1495 1866 1869 28
1496 1866 1870 28
1497 1871 1872 28
1498 1871 1873 28
1499 1871 1874 28
1500 1871 1875 28
1501 1876 1877 28
1502 1876 1878 28
1503 1876 1879 28
1504 1876 1880 28
1505 1881 1882 28
1506 1881 1883 28
1507 1881 1884 28
1508 1881 1885 28
1509 1886 1887 28
1510 1886 1888 28
1511 1886 1889 28
1512 1886 1890 28
1513 1891 1892 28
1514 1891 1893 28
1515 1891 1894 28
1516 1891 1895 28
1517 1896 1897 28
1518 1896 1898 28
1519 1896 1899 28
1520 1896 1900 28
1521 1901 1902 28
1522 1901 1903 28
1523 1901 1904 28
1524 1901 1905 28
1525 1906 1907 28
1526 1906 1908 28
1527 1906 1909 28
1528 1906 1910 28
1529 1911 1912 28
1530 1911 1913 28
1531 1911 1914 28
1532 1911 1915 28
1533 1916 1917 28
1534 1916 1918 28
1535 1916 1919 28
1536 1916 1920 28
1537 1921 1922 28
1538 1921 1923 28
1539 1921 1924 28
1540 1921 1925 28
1541 1926 1927 28
1542 1926 1928 28
1543 1926 1929 28
1544 1926 1930 28
1545 1931 1932 28
1546 1931 1933 28
1547 1931 1934 28
1548 1931 1935 28
1549 1936 1937 28
1550 1936 1938 28
1551 1936 1939 28
1552 1936 1940 28
1553 1941 1942 28
1554 1941 1943 28
1555 1941 1944 28
1556 1941 1945 28
1557 1946 1947 28
1558 1946 1948 28
1559 1946 1949 28
1560 1946 1950 28
1561 1951 1952 28
1562 1951 1953 28
1563 1951 1954 28
1564 1951 1955 28
1565 1956 1957 28
1566 1956 1958 28
1567 1956 1959 28
1568 1956 1960 28
1569 1961 1962 28
1570 1961 1963 28
1571 1961 1964 28
1572 1961 1965 28
1573 1966 1967 28
1574 1966 1968 28
1575 1966 1969 28
1576 1966 1970 28
1577 1971 1972 28
1578 1971 1973 28
1579 1971 1974 28
1580 1971 1975 28
1581 1976 1977 28
1582 1976 1978 28
1583 1976 1979 28
1584 1976 1980 28
1585 1981 1982 28
1586 1981 1983 28
1587 1981 1984 28
1588 1981 1985 28
1589 1986 1987 28
1590 1986 1988 28
1591 1986 1989 28
1592 1986 1990 28
1593 1991 1992 28
1594 1991 1993 28
1595 1991 1994 28
1596 1991 1995 28
1597 1996 1997 28
1598 1996 1998 28
1599 1996 1999 28
1600 1996 2000 28
1601 2001 2002 28
1602 2001 2003 28
1603 2001 2004 28
1604 2001 2005 28
1605 2006 2007 28
1606 2006 2008 28
1607 2006 2009 28
1608 2006 2010 28
1609 2011 2012 28
1610 2011 2013 28
1611 2011 2014 28
1612 2011 2015 28
1613 2016 2017 28
1614 2016 2018 28
1615 2016 2019 28
1616 2016 2020 28
1617 2021 2022 28
1618 2021 2023 28
1619 2021 2024 28
1620 2021 2025 28
1621 2026 2027 28
1622 2026 2028 28
1623 2026 2029 28
1624 2026 2030 28
1625 2031 2032 28
1626 2031 2033 28
1627 2031 2034 28
1628 2031 2035 28
1629 2036 2037 28
1630 2036 2038 28
1631 2036 2039 28
1632 2036 2040 28
1633 2041 2042 28
1634 2041 2043 28
1635 2041 2044 28
1636 2041 2045 28
1637 2046 2047 28
1638 2046 2048 28
1639 2046 2049 28
1640 2046 2050 28
1641 2051 2052 28
1642 2051 2053 28
1643 2051 2054 28
1644 2051 2055 28
1645 2056 2057 28
1646 2056 2058 28
1647 2056 2059 28
1648 2056 2060 28
1649 2061 2062 28
1650 2061 2063 28
1651 2061 2064 28
1652 2061 2065 28
1653 2066 2067 28
1654 2066 2068 28
1655 2066 2069 28
1656 2066 2070 28
1657 2071 2072 28
1658 2071 2073 28
1659 2071 2074 28
1660 2071 2075 28
1661 2076 2077 28
1662 2076 2078 28
1663 2076 2079 28
1664 2076 2080 28
1665 2081 2082 28
1666 2081 2083 28
1667 2081 2084 28
1668 2081 2085 28
1669 2086 2087 28
1670 2086 2088 28
1671 2086 2089 28
1672 2086 2090 28
1673 2091 2092 28
1674 2091 2093 28
1675 2091 2094 28
1676 2091 2095 28
1677 2096 2097 28
1678 2096 2098 28
1679 2096 2099 28
1680 2096 2100 28
1681 2101 2102 28
1682 2101 2103 28
1683 2101 2104 28
1684 2101 2105 28
1685 2106 2107 28
1686 2106 2108 28
1687 2106 2109 28
1688 2106 2110 28
1689 2111 2112 28
1690 2111 2113 28
1691 2111 2114 28
1692 2111 2115 28
1693 2116 2117 28
1694 2116 2118 28
1695 2116 2119 28
1696 2116 2120 28
1697 2121 2122 28
1698 2121 2123 28
1699 2121 2124 28
1700 2121 2125 28
1701 2126 2127 28
1702 2126 2128 28
1703 2126 2129 28
1704 2126 2130 28
1705 2131 2132 28
1706 2131 2133 28
1707 2131 2134 28
1708 2131 2135 28
1709 2136 2137 28
1710 2136 2138 28
1711 2136 2139 28
1712 2136 2140 28
1713 2141 2142 28
1714 2141 2143 28
1715 2141 2144 28
1716 2141 2145 28
1717 2146 2147 28
1718 2146 2148 28
1719 2146 2149 28
1720 2146 2150 28
1721 2151 2152 28
1722 2151 2153 28
1723 2151 2154 28
1724 2151 2155 28
1725 2156 2157 28
1726 2156 2158 28
1727 2156 2159 28
1728 2156 2160 28
1729 2161 2162 28
1730 2161 2163 28
1731 2161 2164 28
1732 2161 2165 28
1733 2166 2167 28
1734 2166 2168 28
1735 2166 2169 28
1736 2166 2170 28
1737 2171 2172 28
1738 2171 2173 28
1739 2171 2174 28
1740 2171 2175 28
1741 2176 2177 28
1742 2176 2178 28
1743 2176 2179 28
1744 2176 2180 28
1745 2181 2182 28
1746 2181 2183 28
1747 2181 2184 28
1748 2181 2185 28
1749 2186 2187 28
1750 2186 2188 28
1751 2186 2189 28
1752 2186 2190 28
1753 2191 2192 28
1754 2191 2193 28
1755 2191 2194 28
1756 2191 2195 28
1757 2196 2197 28
1758 2196 2198 28
1759 2196 2199 28
1760 2196 2200 28
1761 2201 2202 28
1762 2201 2203 28
1763 2201 2204 28
1764 2201 2205 28
1765 2206 2207 28
1766 2206 2208 28
1767 2206 2209 28
1768 2206 2210 28
1769 2211 2212 28
1770 2211 2213 28
1771 2211 2214 28
1772 2211 2215 28
1773 2216 2217 28
1774 2216 2218 28
1775 2216 2219 28
1776 2216 2220 28
1777 2221 2222 28
1778 2221 2223 28
1779 2221 2224 28
1780 2221 2225 28
1781 2226 2227 28
1782 2226 2228 28
1783 2226 2229 28
1784 2226 2230 28
1785 2231 2232 28
1786 2231 2233 28
1787 2231 2234 28
1788 2231 2235 28
1789 2236 2237 28
1790 2236 2238 28
1791 2236 2239 28
1792 2236 2240 28
1793 2241 2242 28
1794 2241 2243 28
1795 2241 2244 28
1796 2241 2245 28
1797 2246 2247 28
1798 2246 2248 28
1799 2246 2249 28
1800 2246 2250 28
1801 2251 2252 28
1802 2251 2253 28
1803 2251 2254 28
1804 2251 2255 28
1805 2256 2257 28
1806 2256 2258 28
1807 2256 2259 28
1808 2256 2260 28
1809 2261 2262 28
1810 2261 2263 28
1811 2261 2264 28
1812 2261 2265 28
1813 2266 2267 28
1814 2266 2268 28
1815 2266 2269 28
1816 2266 2270 28
1817 2271 2272 28
1818 2271 2273 28
1819 2271 2274 28
1820 2271 2275 28
1821 2276 2277 28
1822 2276 2278 28
1823 2276 2279 28
1824 2276 2280 28
1825 2281 2282 28
1826 2281 2283 28
1827 2281 2284 28
1828 2281 2285 28
1829 2286 2287 28
1830 2286 2288 28
1831 2286 2289 28
1832 2286 2290 28
1833 2291 2292 28
1834 2291 2293 28
1835 2291 2294 28
1836 2291 2295 28
1837 2296 2297 28
1838 2296 2298 28
1839 2296 2299 28
1840 2296 2300 28
1841 2301 2302 28
1842 2301 2303 28
1843 2301 2304 28
1844 2301 2305 28
1845 2306 2307 28
1846 2306 2308 28
1847 2306 2309 28
1848 2306 2310 28
1849 2311 2312 28
1850 2311 2313 28
1851 2311 2314 28
1852 2311 2315 28
1853 2316 2317 28
1854 2316 2318 28
1855 2316 2319 28
1856 2316 2320 28
1857 2321 2322 28
1858 2321 2323 28
1859 2321 2324 28
1860 2321 2325 28
1861 2326 2327 28
1862 2326 2328 28
1863 2326 2329 28
1864 2326 2330 28
1865 2331 2332 28
1866 2331 2333 28
1867 2331 2334 28
1868 2331 2335 28
1869 2336 2337 28
1870 2336 2338 28
1871 2336 2339 28
1872 2336 2340 28
1873 2341 2342 28
1874 2341 2343 28
1875 2341 2344 28
1876 2341 2345 28
1877 2346 2347 28
1878 2346 2348 28
1879 2346 2349 28
1880 2346 2350 28
1881 2351 2352 28
1882 2351 2353 28
1883 2351 2354 28
1884 2351 2355 28
1885 2356 2357 28
1886 2356 2358 28
1887 2356 2359 28
1888 2356 2360 28
1889 2361 2362 28
1890 2361 2363 28
1891 2361 2364 28
1892 2361 2365 28
1893 2366 2367 28
1894 2366 2368 28
1895 2366 2369 28
1896 2366 2370 28
1897 2371 2372 28
1898 2371 2373 28
1899 2371 2374 28
1900 2371 2375 28
1901 2376 2377 28
1902 2376 2378 28
1903 2376 2379 28
1904 2376 2380 28
1905 2381 2382 28
1906 2381 2383 28
1907 2381 2384 28
1908 2381 2385 28
1909 2386 2387 28
1910 2386 2388 28
1911 2386 2389 28
1912 2386 2390 28
1913 2391 2392 28
1914 2391 2393 28
1915 2391 2394 28
1916 2391 2395 28
1917 2396 2397 28
1918 2396 2398 28
1919 2396 2399 28
1920 2396 2400 28
1921 2401 2402 28
1922 2401 2403 28
1923 2401 2404 28
1924 2401 2405 28
1925 2406 2407 28
1926 2406 2408 28
1927 2406 2409 28
1928 2406 2410 28
1929 2411 2412 28
1930 2411 2413 28
1931 2411 2414 28
1932 2411 2415 28
1933 2416 2417 28
1934 2416 2418 28
1935 2416 2419 28
1936 2416 2420 28
1937 2421 2422 28
1938 2421 2423 28
1939 2421 2424 28
1940 2421 2425 28
1941 2426 2427 28
1942 2426 2428 28
1943 2426 2429 28
1944 2426 2430 28
1945 2431 2432 28
1946 2431 2433 28
1947 2431 2434 28
1948 2431 2435 28
1949 2436 2437 28
1950 2436 2438 28
1951 2436 2439 28
1952 2436 2440 28
1953 2441 2442 28
1954 2441 2443 28
1955 2441 2444 28
1956 2441 2445 28
1957 2446 2447 28
1958 2446 2448 28
1959 2446 2449 28
1960 2446 2450 28
1961 2451 2452 28
1962 2451 2453 28
1963 2451 2454 28
1964 2451 2455 28
1965 2456 2457 28
1966 2456 2458 28
1967 2456 2459 28
1968 2456 2460 28
1969 2461 2462 28
1970 2461 2463 28
1971 2461 2464 28
1972 2461 2465 28
1973 2466 2467 28
1974 2466 2468 28
1975 2466 2469 28
1976 2466 2470 28
1977 2471 2472 28
1978 2471 2473 28
1979 2471 2474 28
1980 2471 2475 28
1981 2476 2477 28
1982 2476 2478 28
1983 2476 2479 28
1984 2476 2480 28
1985 2481 2482 28
1986 2481 2483 28
1987 2481 2484 28
1988 2481 2485 28
1989 2486 2487 28
1990 2486 2488 28
1991 2486 2489 28
1992 2486 2490 28
1993 2491 2492 28
1994 2491 2493 28
1995 2491 2494 28
1996 2491 2495 28
1997 2496 2497 28
1998 2496 2498 28
1999 2496 2499 28
2000 2496 2500 28
2001 2501 2502 28
2002 2501 2503 28
2003 2501 2504 28
2004 2501 2505 28
2005 2506 2507 28
2006 2506 2508 28
2007 2506 2509 28
2008 2506 2510 28
2009 2511 2512 28
2010 2511 2513 28
2011 2511 2514 28
2012 2511 2515 28
2013 2516 2517 28
2014 2516 2518 28
2015 2516 2519 28
2016 2516 2520 28
2017 2521 2522 28
2018 2521 2523 28
2019 2521 2524 28
2020 2521 2525 28
2021 2526 2527 28
2022 2526 2528 28
2023 2526 2529 28
2024 2526 2530 28
2025 2531 2532 28
2026 2531 2533 28
2027 2531 2534 28
2028 2531 2535 28
2029 2536 2537 28
2030 2536 2538 28
2031 2536 2539 28
2032 2536 2540 28
2033 2541 2542 28
2034 2541 2543 28
2035 2541 2544 28
2036 2541 2545 28
2037 2546 2547 28
2038 2546 2548 28
2039 2546 2549 28
2040 2546 2550 28
2041 2551 2552 28
2042 2551 2553 28
2043 2551 2554 28
2044 2551 2555 28
2045 2556 2557 28
2046 2556 2558 28
2047 2556 2559 28
2048 2556 2560 28
2049 2561 2562 28
2050 2561 2563 28
2051 2561 2564 28
2052 2561 2565 28
2053 2566 2567 28
2054 2566 2568 28
2055 2566 2569 28
2056 2566 2570 28
2057 2571 2572 28
2058 2571 2573 28
2059 2571 2574 28
2060 2571 2575 28
2061 2576 2577 28
2062 2576 2578 28
2063 2576 2579 28
2064 2576 2580 28
2065 2581 2582 28
2066 2581 2583 28
2067 2581 2584 28
2068 2581 2585 28
2069 2586 2587 28
2070 2586 2588 28
2071 2586 2589 28
2072 2586 2590 28
2073 2591 2592 28
2074 2591 2593 28
2075 2591 2594 28
2076 2591 2595 28
2077 2596 2597 28
2078 2596 2598 28
2079 2596 2599 28
2080 2596 2600 28
2081 2601 2602 28
2082 2601 2603 28
2083 2601 2604 28
2084 2601 2605 28
2085 2606 2607 28
2086 2606 2608 28
2087 2606 2609 28
2088 2606 2610 28
2089 2611 2612 28
2090 2611 2613 28
2091 2611 2614 28
2092 2611 2615 28
2093 2616 2617 28
2094 2616 2618 28
2095 2616 2619 28
2096 2616 2620 28
2097 2621 2622 28
2098 2621 2623 28
2099 2621 2624 28
2100 2621 2625 28
2101 2626 2627 28
2102 2626 2628 28
2103 2626 2629 28
2104 2626 2630 28
2105 2631 2632 28
2106 2631 2633 28
2107 2631 2634 28
2108 2631 2635 28
2109 2636 2637 28
2110 2636 2638 28
2111 2636 2639 28
2112 2636 2640 28
2113 2641 2642 28
2114 2641 2643 28
2115 2641 2644 28
2116 2641 2645 28
2117 2646 2647 28
2118 2646 2648 28
2119 2646 2649 28
2120 2646 2650 28
2121 2651 2652 28
2122 2651 2653 28
2123 2651 2654 28
2124 2651 2655 28
2125 2656 2657 28
2126 2656 2658 28
2127 2656 2659 28
2128 2656 2660 28
2129 2661 2662 28
2130 2661 2663 28
2131 2661 2664 28
2132 2661 2665 28
2133 2666 2667 28
2134 2666 2668 28
2135 2666 2669 28
2136 2666 2670 28
2137 2671 2672 28
2138 2671 2673 28
2139 2671 2674 28
2140 2671 2675 28
2141 2676 2677 28
2142 2676 2678 28
2143 2676 2679 28
2144 2676 2680 28
2145 2681 2682 28
2146 2681 2683 28
2147 2681 2684 28
2148 2681 2685 28
2149 2686 2687 28
2150 2686 2688 28
2151 2686 2689 28
2152 2686 2690 28
2153 2691 2692 28
2154 2691 2693 28
2155 2691 2694 28
2156 2691 2695 28
2157 2696 2697 28
2158 2696 2698 28
2159 2696 2699 28
2160 2696 2700 28
2161 2701 2702 28
2162 2701 2703 28
2163 2701 2704 28
2164 2701 2705 28
2165 2706 2707 28
2166 2706 2708 28
2167 2706 2709 28
2168 2706 2710 28
2169 2711 2712 28
2170 2711 2713 28
2171 2711 2714 28
2172 2711 2715 28
2173 2716 2717 28
2174 2716 2718 28
2175 2716 2719 28
2176 2716 2720 28
2177 2721 2722 28
2178 2721 2723 28
2179 2721 2724 28
2180 2721 2725 28
2181 2726 2727 28
2182 2726 2728 28
2183 2726 2729 28
2184 2726 2730 28
2185 2731 2732 28
2186 2731 2733 28
2187 2731 2734 28
2188 2731 2735 28
2189 2736 2737 28
2190 2736 2738 28
2191 2736 2739 28
2192 2736 2740 28
2193 2741 2742 28
2194 2741 2743 28
2195 2741 2744 28
2196 2741 2745 28
2197 2746 2747 28
2198 2746 2748 28
2199 2746 2749 28
2200 2746 2750 28
2201 2751 2752 28
2202 2751 2753 28
2203 2751 2754 28
2204 2751 2755 28
2205 2756 2757 28
2206 2756 2758 28
2207 2756 2759 28
2208 2756 2760 28
2209 2761 2762 28
2210 2761 2763 28
2211 2761 2764 28
2212 2761 2765 28
2213 2766 2767 28
2214 2766 2768 28
2215 2766 2769 28
2216 2766 2770 28
2217 2771 2772 28
2218 2771 2773 28
2219 2771 2774 28
2220 2771 2775 28
2221 2776 2777 28
2222 2776 2778 28
2223 2776 2779 28
2224 2776 2780 28
2225 2781 2782 28
2226 2781 2783 28
2227 2781 2784 28
2228 2781 2785 28
2229 2786 2787 28
2230 2786 2788 28
2231 2786 2789 28
2232 2786 2790 28
2233 2791 2792 28
2234 2791 2793 28
2235 2791 2794 28
2236 2791 2795 28
2237 2796 2797 28
2238 2796 2798 28
2239 2796 2799 28
2240 2796 2800 28
2241 2801 2802 28
2242 2801 2803 28
2243 2801 2804 28
2244 2801 2805 28
2245 2806 2807 28
2246 2806 2808 28
2247 2806 2809 28
2248 2806 2810 28
2249 2811 2812 28
2250 2811 2813 28
2251 2811 2814 28
2252 2811 2815 28
2253 2816 2817 28
2254 2816 2818 28
2255 2816 2819 28
2256 2816 2820 28
2257 2821 2822 28
2258 2821 2823 28
2259 2821 2824 28
2260 2821 2825 28
2261 2826 2827 28
2262 2826 2828 28
2263 2826 2829 28
2264 2826 2830 28
2265 2831 2832 28
2266 2831 2833 28
2267 2831 2834 28
2268 2831 2835 28
2269 2836 2837 28
2270 2836 2838 28
2271 2836 2839 28
2272 2836 2840 28
2273 2841 2842 28
2274 2841 2843 28
2275 2841 2844 28
2276 2841 2845 28
2277 2846 2847 28
2278 2846 2848 28
2279 2846 2849 28
2280 2846 2850 28
2281 2851 2852 28
2282 2851 2853 28
2283 2851 2854 28
2284 2851 2855 28
2285 2856 2857 28
2286 2856 2858 28
2287 2856 2859 28
2288 2856 2860 28
2289 2861 2862 28
2290 2861 2863 28
2291 2861 2864 28
2292 2861 2865 28
2293 2866 2867 28
2294 2866 2868 28
2295 2866 2869 28
2296 2866 2870 28
2297 2871 2872 28
2298 2871 2873 28
2299 2871 2874 28
2300 2871 2875 28
2301 2876 2877 28
2302 2876 2878 28
2303 2876 2879 28
2304 2876 2880 28
2305 2881 2882 28
2306 2881 2883 28
2307 2881 2884 28
2308 2881 2885 28
2309 2886 2887 28
2310 2886 2888 28
2311 2886 2889 28
2312 2886 2890 28
2313 2891 2892 28
2314 2891 2893 28
2315 2891 2894 28
2316 2891 2895 28
2317 2896 2897 28
2318 2896 2898 28
2319 2896 2899 28
2320 2896 2900 28
2321 2901 2902 28
2322 2901 2903 28
2323 2901 2904 28
2324 2901 2905 28
2325 2906 2907 28
2326 2906 2908 28
2327 2906 2909 28
2328 2906 2910 28
2329 2911 2912 28
2330 2911 2913 28
2331 2911 2914 28
2332 2911 2915 28
2333 2916 2917 28
2334 2916 2918 28
2335 2916 2919 28
2336 2916 2920 28
2337 2921 2922 28
2338 2921 2923 28
2339 2921 2924 28
2340 2921 2925 28
2341 2926 2927 28
2342 2926 2928 28
2343 2926 2929 28
2344 2926 2930 28
2345 2931 2932 28
2346 2931 2933 28
2347 2931 2934 28
2348 2931 2935 28
2349 2936 2937 28
2350 2936 2938 28
2351 2936 2939 28
2352 2936 2940 28
2353 2941 2942 28
2354 2941 2943 28
2355 2941 2944 28
2356 2941 2945 28
2357 2946 2947 28
2358 2946 2948 28
2359 2946 2949 28
2360 2946 2950 28
2361 2951 2952 28
2362 2951 2953 28
2363 2951 2954 28
2364 2951 2955 28
2365 2956 2957 28
2366 2956 2958 28
2367 2956 2959 28
2368 2956 2960 28
2369 2961 2962 28
2370 2961 2963 28
2371 2961 2964 28
2372 2961 2965 28
2373 2966 2967 28
2374 2966 2968 28
2375 2966 2969 28
2376 2966 2970 28
2377 2971 2972 28
2378 2971 2973 28
2379 2971 2974 28
2380 2971 2975 28
2381 2976 2977 28
2382 2976 2978 28
2383 2976 2979 28
2384 2976 2980 28
2385 2981 2982 28
2386 2981 2983 28
2387 2981 2984 28
2388 2981 2985 28
2389 2986 2987 28
2390 2986 2988 28
2391 2986 2989 28
2392 2986 2990 28
2393 2991 2992 28
2394 2991 2993 28
2395 2991 2994 28
2396 2991 2995 28
2397 2996 2997 28
2398 2996 2998 28
2399 2996 2999 28
2400 2996 3000 28
2401 3001 3002 28
2402 3001 3003 28
2403 3001 3004 28
2404 3001 3005 28
2405 3006 3007 28
2406 3006 3008 28
2407 3006 3009 28
2408 3006 3010 28
2409 3011 3012 28
2410 3011 3013 28
2411 3011 3014 28
2412 3011 3015 28
2413 3016 3017 28
2414 3016 3018 28
2415 3016 3019 28
2416 3016 3020 28
2417 3021 3022 28
2418 3021 3023 28
2419 3021 3024 28
2420 3021 3025 28
2421 3026 3027 28
2422 3026 3028 28
2423 3026 3029 28
2424 3026 3030 28
2425 3031 3032 28
2426 3031 3033 28
2427 3031 3034 28
2428 3031 3035 28
2429 3036 3037 28
2430 3036 3038 28
2431 3036 3039 28
2432 3036 3040 28
2433 3041 3042 28
2434 3041 3043 28
2435 3041 3044 28
2436 3041 3045 28
2437 3046 3047 28
2438 3046 3048 28
2439 3046 3049 28
2440 3046 3050 28
2441 3051 3052 28
2442 3051 3053 28
2443 3051 3054 28
2444 3051 3055 28
2445 3056 3057 28
2446 3056 3058 28
2447 3056 3059 28
2448 3056 3060 28
2449 3061 3062 28
2450 3061 3063 28
2451 3061 3064 28
2452 3061 3065 28
2453 3066 3067 28
2454 3066 3068 28
2455 3066 3069 28
2456 3066 3070 28
2457 3071 3072 28
2458 3071 3073 28
2459 3071 3074 28
2460 3071 3075 28
2461 3076 3077 28
2462 3076 3078 28
2463 3076 3079 28
2464 3076 3080 28
2465 3081 3082 28
2466 3081 3083 28
2467 3081 3084 28
2468 3081 3085 28
2469 3086 3087 28
2470 3086 3088 28
2471 3086 3089 28
2472 3086 3090 28
2473 3091 3092 28
2474 3091 3093 28
2475 3091 3094 28
2476 3091 3095 28
2477 3096 3097 28
2478 3096 3098 28
2479 3096 3099 28
2480 3096 3100 28
2481 3101 3102 28
2482 3101 3103 28
2483 3101 3104 28
2484 3101 3105 28
2485 3106 3107 28
2486 3106 3108 28
2487 3106 3109 28
2488 3106 3110 28
2489 3111 3112 28
2490 3111 3113 28
2491 3111 3114 28
2492 3111 3115 28
2493 3116 3117 28
2494 3116 3118 28
2495 3116 3119 28
2496 3116 3120 28
2497 3121 3122 28
2498 3121 3123 28
2499 3121 3124 28
2500 3121 3125 28
2501 3126 3127 28
2502 3126 3128 28
2503 3126 3129 28
2504 3126 3130 28
2505 3131 3132 28
2506 3131 3133 28
2507 3131 3134 28
2508 3131 3135 28
2509 3136 3137 28
2510 3136 3138 28
2511 3136 3139 28
2512 3136 3140 28
2513 3141 3142 28
2514 3141 3143 28
2515 3141 3144 28
2516 3141 3145 28
2517 3146 3147 28
2518 3146 3148 28
2519 3146 3149 28
2520 3146 3150 28
2521 3151 3152 28
2522 3151 3153 28
2523 3151 3154 28
2524 3151 3155 28
2525 3156 3157 28
2526 3156 3158 28
2527 3156 3159 28
2528 3156 3160 28
2529 3161 3162 28
2530 3161 3163 28
2531 3161 3164 28
2532 3161 3165 28
2533 3166 3167 28
2534 3166 3168 28
2535 3166 3169 28
2536 3166 3170 28
2537 3171 3172 28
2538 3171 3173 28
2539 3171 3174 28
2540 3171 3175 28
2541 3176 3177 28
2542 3176 3178 28
2543 3176 3179 28
2544 3176 3180 28
2545 3181 3182 28
2546 3181 3183 28
2547 3181 3184 28
2548 3181 3185 28
2549 3186 3187 28
2550 3186 3188 28
2551 3186 3189 28
2552 3186 3190 28
2553 3191 3192 28
2554 3191 3193 28
2555 3191 3194 28
2556 3191 3195 28
2557 3196 3197 28
2558 3196 3198 28
2559 3196 3199 28
2560 3196 3200 28
2561 3201 3202 28
2562 3201 3203 28
2563 3201 3204 28
2564 3201 3205 28
2565 3206 3207 28
2566 3206 3208 28
2567 3206 3209 28
2568 3206 3210 28
2569 3211 3212 28
2570 3211 3213 28
2571 3211 3214 28
2572 3211 3215 28
2573 3216 3217 28
2574 3216 3218 28
2575 3216 3219 28
2576 3216 3220 28
2577 3221 3222 28
2578 3221 3223 28
2579 3221 3224 28
2580 3221 3225 28
2581 3226 3227 28
2582 3226 3228 28
2583 3226 3229 28
2584 3226 3230 28
2585 3231 3232 28
2586 3231 3233 28
2587 3231 3234 28
2588 3231 3235 28
2589 3236 3237 28
2590 3236 3238 28
2591 3236 3239 28
2592 3236 3240 28
2593 3241 3242 28
2594 3241 3243 28
2595 3241 3244 28
2596 3241 3245 28
2597 3246 3247 28
2598 3246 3248 28
2599 3246 3249 28
2600 3246 3250 28
2601 3251 3252 28
2602 3251 3253 28
2603 3251 3254 28
2604 3251 3255 28
2605 3256 3257 28
2606 3256 3258 28
2607 3256 3259 28
2608 3256 3260 28
2609 3261 3262 28
2610 3261 3263 28
2611 3261 3264 28
2612 3261 3265 28
2613 3266 3267 28
2614 3266 3268 28
2615 3266 3269 28
2616 3266 3270 28
2617 3271 3272 28
2618 3271 3273 28
2619 3271 3274 28
2620 3271 3275 28
2621 3276 3277 28
2622 3276 3278 28
2623 3276 3279 28
2624 3276 3280 28
2625 3281 3282 28
2626 3281 3283 28
2627 3281 3284 28
2628 3281 3285 28
2629 3286 3287 28
2630 3286 3288 28
2631 3286 3289 28
2632 3286 3290 28
2633 3291 3292 28
2634 3291 3293 28
2635 3291 3294 28
2636 3291 3295 28
2637 3296 3297 28
2638 3296 3298 28
2639 3296 3299 28
2640 3296 3300 28
2641 3301 3302 28
2642 3301 3303 28
2643 3301 3304 28
2644 3301 3305 28
2645 3306 3307 28
2646 3306 3308 28
2647 3306 3309 28
2648 3306 3310 28
2649 3311 3312 28
2650 3311 3313 28
2651 3311 3314 28
2652 3311 3315 28
2653 3316 3317 28
2654 3316 3318 28
2655 3316 3319 28
2656 3316 3320 28
2657 3321 3322 28
2658 3321 3323 28
2659 3321 3324 28
2660 3321 3325 28
2661 3326 3327 28
2662 3326 3328 28
2663 3326 3329 28
2664 3326 3330 28
2665 3331 3332 28
2666 3331 3333 28
2667 3331 3334 28
2668 3331 3335 28
2669 3336 3337 28
2670 3336 3338 28
2671 3336 3339 28
2672 3336 3340 28
2673 3341 3342 28
2674 3341 3343 28
2675 3341 3344 28
2676 3341 3345 28
2677 3346 3347 28
2678 3346 3348 28
2679 3346 3349 28
2680 3346 3350 28
2681 3351 3352 28
2682 3351 3353 28
2683 3351 3354 28
2684 3351 3355 28
2685 3356 3357 28
2686 3356 3358 28
2687 3356 3359 28
2688 3356 3360 28
2689 3361 3362 28
2690 3361 3363 28
2691 3361 3364 28
2692 3361 3365 28
2693 3366 3367 28
2694 3366 3368 28
2695 3366 3369 28
2696 3366 3370 28
2697 3371 3372 28
2698 3371 3373 28
2699 3371 3374 28
2700 3371 3375 28
2701 3376 3377 28
2702 3376 3378 28
2703 3376 3379 28
2704 3376 3380 28
2705 3381 3382 28
2706 3381 3383 28
2707 3381 3384 28
2708 3381 3385 28
2709 3386 3387 28
2710 3386 3388 28
2711 3386 3389 28
2712 3386 3390 28
2713 3391 3392 28
2714 3391 3393 28
2715 3391 3394 28
2716 3391 3395 28
2717 3396 3397 28
2718 3396 3398 28
2719 3396 3399 28
2720 3396 3400 28
2721 3401 3402 28
2722 3401 3403 28
2723 3401 3404 28
2724 3401 3405 28
2725 3406 3407 28
2726 3406 3408 28
2727 3406 3409 28
2728 3406 3410 28
2729 3411 3412 28
2730 3411 3413 28
2731 3411 3414 28
2732 3411 3415 28
2733 3416 3417 28
2734 3416 3418 28
2735 3416 3419 28
2736 3416 3420 28
2737 3421 3422 28
2738 3421 3423 28
2739 3421 3424 28
2740 3421 3425 28
2741 3426 3427 28
2742 3426 3428 28
2743 3426 3429 28
2744 3426 3430 28
2745 3431 3432 28
2746 3431 3433 28
2747 3431 3434 28
2748 3431 3435 28
2749 3436 3437 28
2750 3436 3438 28
2751 3436 3439 28
2752 3436 3440 28
2753 3441 3442 28
2754 3441 3443 28
2755 3441 3444 28
2756 3441 3445 28
2757 3446 3447 28
2758 3446 3448 28
2759 3446 3449 28
2760 3446 3450 28
2761 3451 3452 28
2762 3451 3453 28
2763 3451 3454 28
2764 3451 3455 28
2765 3456 3457 28
2766 3456 3458 28
2767 3456 3459 28
2768 3456 3460 28
2769 3461 3462 28
2770 3461 3463 28
2771 3461 3464 28
2772 3461 3465 28
2773 3466 3467 28
2774 3466 3468 28
2775 3466 3469 28
2776 3466 3470 28
2777 3471 3472 28
2778 3471 3473 28
2779 3471 3474 28
2780 3471 3475 28
2781 3476 3477 28
2782 3476 3478 28
2783 3476 3479 28
2784 3476 3480 28
2785 3481 3482 28
2786 3481 3483 28
2787 3481 3484 28
2788 3481 3485 28
2789 3486 3487 28
2790 3486 3488 28
2791 3486 3489 28
2792 3486 3490 28
2793 3491 3492 28
2794 3491 3493 28
2795 3491 3494 28
2796 3491 3495 28
2797 3496 3497 28
2798 3496 3498 28
2799 3496 3499 28
2800 3496 3500 28
2801 3501 3502 28
2802 3501 3503 28
2803 3501 3504 28
2804 3501 3505 28
2805 3506 3507 28
2806 3506 3508 28
2807 3506 3509 28
2808 3506 3510 28
2809 3511 3512 28
2810 3511 3513 28
2811 3511 3514 28
2812 3511 3515 28
2813 3516 3517 28
2814 3516 3518 28
2815 3516 3519 28
2816 3516 3520 28
2817 3521 3522 28
2818 3521 3523 28
2819 3521 3524 28
2820 3521 3525 28
2821 3526 3527 28
2822 3526 3528 28
2823 3526 3529 28
2824 3526 3530 28
2825 3531 3532 28
2826 3531 3533 28
2827 3531 3534 28
2828 3531 3535 28
2829 3536 3537 28
2830 3536 3538 28
2831 3536 3539 28
2832 3536 3540 28
2833 3541 3542 28
2834 3541 3543 28
2835 3541 3544 28
2836 3541 3545 28
2837 3546 3547 28
2838 3546 3548 28
2839 3546 3549 28
2840 3546 3550 28
2841 3551 3552 28
2842 3551 3553 28
2843 3551 3554 28
2844 3551 3555 28
2845 3556 3557 28
2846 3556 3558 28
2847 3556 3559 28
2848 3556 3560 28
2849 3561 3562 28
2850 3561 3563 28
2851 3561 3564 28
2852 3561 3565 28
2853 3566 3567 28
2854 3566 3568 28
2855 3566 3569 28
2856 3566 3570 28
2857 3571 3572 28
2858 3571 3573 28
2859 3571 3574 28
2860 3571 3575 28
2861 3576 3577 28
2862 3576 3578 28
2863 3576 3579 28
2864 3576 3580 28
2865 3581 3582 28
2866 3581 3583 28
2867 3581 3584 28
2868 3581 3585 28
2869 3586 3587 28
2870 3586 3588 28
2871 3586 3589 28
2872 3586 3590 28
2873 3591 3592 28
2874 3591 3593 28
2875 3591 3594 28
2876 3591 3595 28
2877 3596 3597 28
2878 3596 3598 28
2879 3596 3599 28
2880 3596 3600 28
2881 3601 3602 28
2882 3601 3603 28
2883 3601 3604 28
2884 3601 3605 28
2885 3606 3607 28
2886 3606 3608 28
2887 3606 3609 28
2888 3606 3610 28
2889 3611 3612 28
2890 3611 3613 28
2891 3611 3614 28
2892 3611 3615 28
2893 3616 3617 28
2894 3616 3618 28
2895 3616 3619 28
2896 3616 3620 28
2897 3621 3622 28
2898 3621 3623 28
2899 3621 3624 28
2900 3621 3625 28
2901 3626 3627 28
2902 3626 3628 28
2903 3626 3629 28
2904 3626 3630 28
2905 3631 3632 28
2906 3631 3633 28
2907 3631 3634 28
2908 3631 3635 28
2909 3636 3637 28
2910 3636 3638 28
2911 3636 3639 28
2912 3636 3640 28
2913 3641 3642 28
2914 3641 3643 28
2915 3641 3644 28
2916 3641 3645 28
2917 3646 3647 28
2918 3646 3648 28
2919 3646 3649 28
2920 3646 3650 28
2921 3651 3652 28
2922 3651 3653 28
2923 3651 3654 28
2924 3651 3655 28
2925 3656 3657 28
2926 3656 3658 28
2927 3656 3659 28
2928 3656 3660 28
2929 3661 3662 28
2930 3661 3663 28
2931 3661 3664 28
2932 3661 3665 28
2933 3666 3667 28
2934 3666 3668 28
2935 3666 3669 28
2936 3666 3670 28
2937 3671 3672 28
2938 3671 3673 28
2939 3671 3674 28
2940 3671 3675 28
2941 3676 3677 28
2942 3676 3678 28
2943 3676 3679 28
2944 3676 3680 28
2945 3681 3682 28
2946 3681 3683 28
2947 3681 3684 28
2948 3681 3685 28
2949 3686 3687 28
2950 3686 3688 28
2951 3686 3689 28
2952 3686 3690 28
2953 3691 3692 28
2954 3691 3693 28
2955 3691 3694 28
2956 3691 3695 28
2957 3696 3697 28
2958 3696 3698 28
2959 3696 3699 28
2960 3696 3700 28
2961 3701 3702 28
2962 3701 3703 28
2963 3701 3704 28
2964 3701 3705 28
2965 3706 3707 28
2966 3706 3708 28
2967 3706 3709 28
2968 3706 3710 28
2969 3711 3712 28
2970 3711 3713 28
2971 3711 3714 28
2972 3711 3715 28
2973 3716 3717 28
2974 3716 3718 28
2975 3716 3719 28
2976 3716 3720 28
2977 3721 3722 28
2978 3721 3723 28
2979 3721 3724 28
2980 3721 3725 28
2981 3726 3727 28
2982 3726 3728 28
2983 3726 3729 28
2984 3726 3730 28
2985 3731 3732 28
2986 3731 3733 28
2987 3731 3734 28
2988 3731 3735 28
2989 3736 3737 28
2990 3736 3738 28
2991 3736 3739 28
2992 3736 3740 28
2993 3741 3742 28
2994 3741 3743 28
2995 3741 3744 28
2996 3741 3745 28
2997 3746 3747 28
2998 3746 3748 28
2999 3746 3749 28
3000 3746 3750 28
3001 3751 3752 28
3002 3751 3753 28
3003 3751 3754 28
3004 3751 3755 28
3005 3756 3757 28
3006 3756 3758 28
3007 3756 3759 28
3008 3756 3760 28
3009 3761 3762 28
3010 3761 3763 28
3011 3761 3764 28
3012 3761 3765 28
3013 3766 3767 28
3014 3766 3768 28
3015 3766 3769 28
3016 3766 3770 28
3017 3771 3772 28
3018 3771 3773 28
3019 3771 3774 28
3020 3771 3775 28
3021 3776 3777 28
3022 3776 3778 28
3023 3776 3779 28
3024 3776 3780 28
3025 3781 3782 28
3026 3781 3783 28
3027 3781 3784 28
3028 3781 3785 28
3029 3786 3787 28
3030 3786 3788 28
3031 3786 3789 28
3032 3786 3790 28
3033 3791 3792 28
3034 3791 3793 28
3035 3791 3794 28
3036 3791 3795 28
3037 3796 3797 28
3038 3796 3798 28
3039 3796 3799 28
3040 3796 3800 28
3041 3801 3802 28
3042 3801 3803 28
3043 3801 3804 28
3044 3801 3805 28
3045 3806 3807 28
3046 3806 3808 28
3047 3806 3809 28
3048 3806 3810 28
3049 3811 3812 28
3050 3811 3813 28
3051 3811 3814 28
3052 3811 3815 28
3053 3816 3817 28
3054 3816 3818 28
3055 3816 3819 28
3056 3816 3820 28
3057 3821 3822 28
3058 3821 3823 28
3059 3821 3824 28
3060 3821 3825 28
3061 3826 3827 28
3062 3826 3828 28
3063 3826 3829 28
3064 3826 3830 28
3065 3831 3832 28
3066 3831 3833 28
3067 3831 3834 28
3068 3831 3835 28
3069 3836 3837 28
3070 3836 3838 28
3071 3836 3839 28
3072 3836 3840 28
3073 3841 3842 28
3074 3841 3843 28
3075 3841 3844 28
3076 3841 3845 28
3077 3846 3847 28
3078 3846 3848 28
3079 3846 3849 28
3080 3846 3850 28
3081 3851 3852 28
3082 3851 3853 28
3083 3851 3854 28
3084 3851 3855 28
3085 3856 3857 28
3086 3856 3858 28
3087 3856 3859 28
3088 3856 3860 28
3089 3861 3862 28
3090 3861 3863 28
3091 3861 3864 28
3092 3861 3865 28
3093 3866 3867 28
3094 3866 3868 28
3095 3866 3869 28
3096 3866 3870 28
3097 3871 3872 28
3098 3871 3873 28
3099 3871 3874 28
3100 3871 3875 28
3101 3876 3877 28
3102 3876 3878 28
3103 3876 3879 28
3104 3876 3880 28
3105 3881 3882 28
3106 3881 3883 28
3107 3881 3884 28
3108 3881 3885 28
3109 3886 3887 28
3110 3886 3888 28
3111 3886 3889 28
3112 3886 3890 28
3113 3891 3892 28
3114 3891 3893 28
3115 3891 3894 28
3116 3891 3895 28
3117 3896 3897 28
3118 3896 3898 28
3119 3896 3899 28
3120 3896 3900 28
3121 3901 3902 28
3122 3901 3903 28
3123 3901 3904 28
3124 3901 3905 28
3125 3906 3907 28
3126 3906 3908 28
3127 3906 3909 28
3128 3906 3910 28
3129 3911 3912 28
3130 3911 3913 28
3131 3911 3914 28
3132 3911 3915 28
3133 3916 3917 28
3134 3916 3918 28
3135 3916 3919 28
3136 3916 3920 28
3137 3921 3922 28
3138 3921 3923 28
3139 3921 3924 28
3140 3921 3925 28
3141 3926 3927 28
3142 3926 3928 28
3143 3926 3929 28
3144 3926 3930 28
3145 3931 3932 28
3146 3931 3933 28
3147 3931 3934 28
3148 3931 3935 28
3149 3936 3937 28
3150 3936 3938 28
3151 3936 3939 28
3152 3936 3940 28
3153 3941 3942 28
3154 3941 3943 28
3155 3941 3944 28
3156 3941 3945 28
3157 3946 3947 28
3158 3946 3948 28
3159 3946 3949 28
3160 3946 3950 28
3161 3951 3952 28
3162 3951 3953 28
3163 3951 3954 28
3164 3951 3955 28
3165 3956 3957 28
3166 3956 3958 28
3167 3956 3959 28
3168 3956 3960 28
3169 3961 3962 28
3170 3961 3963 28
3171 3961 3964 28
3172 3961 3965 28
3173 3966 3967 28
3174 3966 3968 28
3175 3966 3969 28
3176 3966 3970 28
3177 3971 3972 28
3178 3971 3973 28
3179 3971 3974 28
3180 3971 3975 28
3181 3976 3977 28
3182 3976 3978 28
3183 3976 3979 28
3184 3976 3980 28
3185 3981 3982 28
3186 3981 3983 28
3187 3981 3984 28
3188 3981 3985 28
3189 3986 3987 28
3190 3986 3988 28
3191 3986 3989 28
3192 3986 3990 28
3193 3991 3992 28
3194 3991 3993 28
3195 3991 3994 28
3196 3991 3995 28
3197 3996 3997 28
3198 3996 3998 28
3199 3996 3999 28
3200 3996 4000 28
3201 4001 4002 28
3202 4001 4003 28
3203 4001 4004 28
3204 4001 4005 28
3205 4006 4007 28
3206 4006 4008 28
3207 4006 4009 28
3208 4006 4010 28
3209 4011 4012 28
3210 4011 4013 28
3211 4011 4014 28
3212 4011 4015 28
3213 4016 4017 28
3214 4016 4018 28
3215 4016 4019 28
3216 4016 4020 28
3217 4021 4022 28
3218 4021 4023 28
3219 4021 4024 28
3220 4021 4025 28
3221 4026 4027 28
3222 4026 4028 28
3223 4026 4029 28
3224 4026 4030 28
3225 4031 4032 28
3226 4031 4033 28
3227 4031 4034 28
3228 4031 4035 28
3229 4036 4037 28
3230 4036 4038 28
3231 4036 4039 28
3232 4036 4040 28
3233 4041 4042 28
3234 4041 4043 28
3235 4041 4044 28
3236 4041 4045 28
3237 4046 4047 28
3238 4046 4048 28
3239 4046 4049 28
3240 4046 4050 28
3241 4051 4052 28
3242 4051 4053 28
3243 4051 4054 28
3244 4051 4055 28
3245 4056 4057 28
3246 4056 4058 28
3247 4056 4059 28
3248 4056 4060 28
3249 4061 4062 28
3250 4061 4063 28
3251 4061 4064 28
3252 4061 4065 28
3253 4066 4067 28
3254 4066 4068 28
3255 4066 4069 28
3256 4066 4070 28
3257 4071 4072 28
3258 4071 4073 28
3259 4071 4074 28
3260 4071 4075 28
3261 4076 4077 28
3262 4076 4078 28
3263 4076 4079 28
3264 4076 4080 28
3265 4081 4082 28
3266 4081 4083 28
3267 4081 4084 28
3268 4081 4085 28
3269 4086 4087 28
3270 4086 4088 28
3271 4086 4089 28
3272 4086 4090 28
3273 4091 4092 28
3274 4091 4093 28
3275 4091 4094 28
3276 4091 4095 28
3277 4096 4097 28
3278 4096 4098 28
3279 4096 4099 28
3280 4096 4100 28
3281 4101 4102 28
3282 4101 4103 28
3283 4101 4104 28
3284 4101 4105 28
3285 4106 4107 28
3286 4106 4108 28
3287 4106 4109 28
3288 4106 4110 28
3289 4111 4112 28
3290 4111 4113 28
3291 4111 4114 28
3292 4111 4115 28
3293 4116 4117 28
3294 4116 4118 28
3295 4116 4119 28
3296 4116 4120 28
3297 4121 4122 28
3298 4121 4123 28
3299 4121 4124 28
3300 4121 4125 28
3301 4126 4127 28
3302 4126 4128 28
3303 4126 4129 28
3304 4126 4130 28
3305 4131 4132 28
3306 4131 4133 28
3307 4131 4134 28
3308 4131 4135 28
3309 4136 4137 28
3310 4136 4138 28
3311 4136 4139 28
3312 4136 4140 28
3313 4141 4142 28
3314 4141 4143 28
3315 4141 4144 28
3316 4141 4145 28
3317 4146 4147 28
3318 4146 4148 28
3319 4146 4149 28
3320 4146 4150 28
3321 4151 4152 28
3322 4151 4153 28
3323 4151 4154 28
3324 4151 4155 28
3325 4156 4157 28
3326 4156 4158 28
3327 4156 4159 28
3328 4156 4160 28
3329 4161 4162 28
3330 4161 4163 28
3331 4161 4164 28
3332 4161 4165 28
3333 4166 4167 28
3334 4166 4168 28
3335 4166 4169 28
3336 4166 4170 28
3337 4171 4172 28
3338 4171 4173 28
3339 4171 4174 28
3340 4171 4175 28
3341 4176 4177 28
3342 4176 4178 28
3343 4176 4179 28
3344 4176 4180 28
3345 4181 4182 28
3346 4181 4183 28
3347 4181 4184 28
3348 4181 4185 28
3349 4186 4187 28
3350 4186 4188 28
3351 4186 4189 28
3352 4186 4190 28
3353 4191 4192 28
3354 4191 4193 28
3355 4191 4194 28
3356 4191 4195 28
3357 4196 4197 28
3358 4196 4198 28
3359 4196 4199 28
3360 4196 4200 28
3361 4201 4202 28
3362 4201 4203 28
3363 4201 4204 28
3364 4201 4205 28
3365 4206 4207 28
3366 4206 4208 28
3367 4206 4209 28
3368 4206 4210 28
3369 4211 4212 28
3370 4211 4213 28
3371 4211 4214 28
3372 4211 4215 28
3373 4216 4217 28
3374 4216 4218 28
3375 4216 4219 28
3376 4216 4220 28
3377 4221 4222 28
3378 4221 4223 28
3379 4221 4224 28
3380 4221 4225 28
3381 4226 4227 28
3382 4226 4228 28
3383 4226 4229 28
3384 4226 4230 28
3385 4231 4232 28
3386 4231 4233 28
3387 4231 4234 28
3388 4231 4235 28
3389 4236 4237 28
3390 4236 4238 28
3391 4236 4239 28
3392 4236 4240 28
3393 4241 4242 28
3394 4241 4243 28
3395 4241 4244 28
3396 4241 4245 28
3397 4246 4247 28
3398 4246 4248 28
3399 4246 4249 28
3400 4246 4250 28
3401 4251 4252 28
3402 4251 4253 28
3403 4251 4254 28
3404 4251 4255 28
3405 4256 4257 28
3406 4256 4258 28
3407 4256 4259 28
3408 4256 4260 28
3409 4261 4262 28
3410 4261 4263 28
3411 4261 4264 28
3412 4261 4265 28
3413 4266 4267 28
3414 4266 4268 28
3415 4266 4269 28
3416 4266 4270 28
3417 4271 4272 28
3418 4271 4273 28
3419 4271 4274 28
3420 4271 4275 28
3421 4276 4277 28
3422 4276 4278 28
3423 4276 4279 28
3424 4276 4280 28
3425 4281 4282 28
3426 4281 4283 28
3427 4281 4284 28
3428 4281 4285 28
3429 4286 4287 28
3430 4286 4288 28
3431 4286 4289 28
3432 4286 4290 28
3433 4291 4292 28
3434 4291 4293 28
3435 4291 4294 28
3436 4291 4295 28
3437 4296 4297 28
3438 4296 4298 28
3439 4296 4299 28
3440 4296 4300 28
3441 4301 4302 28
3442 4301 4303 28
3443 4301 4304 28
3444 4301 4305 28
3445 4306 4307 28
3446 4306 4308 28
3447 4306 4309 28
3448 4306 4310 28
3449 4311 4312 28
3450 4311 4313 28
3451 4311 4314 28
3452 4311 4315 28
3453 4316 4317 28
3454 4316 4318 28
3455 4316 4319 28
3456 4316 4320 28
3457 4321 4322 28
3458 4321 4323 28
3459 4321 4324 28
3460 4321 4325 28
3461 4326 4327 28
3462 4326 4328 28
3463 4326 4329 28
3464 4326 4330 28
3465 4331 4332 28
3466 4331 4333 28
3467 4331 4334 28
3468 4331 4335 28
3469 4336 4337 28
3470 4336 4338 28
3471 4336 4339 28
3472 4336 4340 28
3473 4341 4342 28
3474 4341 4343 28
3475 4341 4344 28
3476 4341 4345 28
3477 4346 4347 28
3478 4346 4348 28
3479 4346 4349 28
3480 4346 4350 28
3481 4351 4352 28
3482 4351 4353 28
3483 4351 4354 28
3484 4351 4355 28
3485 4356 4357 28
3486 4356 4358 28
3487 4356 4359 28
3488 4356 4360 28
3489 4361 4362 28
3490 4361 4363 28
3491 4361 4364 28
3492 4361 4365 28
3493 4366 4367 28
3494 4366 4368 28
3495 4366 4369 28
3496 4366 4370 28
3497 4371 4372 28
3498 4371 4373 28
3499 4371 4374 28
3500 4371 4375 28
3501 4376 4377 28
3502 4376 4378 28
3503 4376 4379 28
3504 4376 4380 28
3505 4381 4382 28
3506 4381 4383 28
3507 4381 4384 28
3508 4381 4385 28
3509 4386 4387 28
3510 4386 4388 28
3511 4386 4389 28
3512 4386 4390 28
3513 4391 4392 28
3514 4391 4393 28
3515 4391 4394 28
3516 4391 4395 28
3517 4396 4397 28
3518 4396 4398 28
3519 4396 4399 28
3520 4396 4400 28
3521 4401 4402 28
3522 4401 4403 28
3523 4401 4404 28
3524 4401 4405 28
3525 4406 4407 28
3526 4406 4408 28
3527 4406 4409 28
3528 4406 4410 28
3529 4411 4412 28
3530 4411 4413 28
3531 4411 4414 28
3532 4411 4415 28
3533 4416 4417 28
3534 4416 4418 28
3535 4416 4419 28
3536 4416 4420 28
3537 4421 4422 28
3538 4421 4423 28
3539 4421 4424 28
3540 4421 4425 28
3541 4426 4427 28
3542 4426 4428 28
3543 4426 4429 28
3544 4426 4430 28
3545 4431 4432 28
3546 4431 4433 28
3547 4431 4434 28
3548 4431 4435 28
3549 4436 4437 28
3550 4436 4438 28
3551 4436 4439 28
3552 4436 4440 28
3553 4441 4442 28
3554 4441 4443 28
3555 4441 4444 28
3556 4441 4445 28
3557 4446 4447 28
3558 4446 4448 28
3559 4446 4449 28
3560 4446 4450 28
3561 4451 4452 28
3562 4451 4453 28
3563 4451 4454 28
3564 4451 4455 28
3565 4456 4457 28
3566 4456 4458 28
3567 4456 4459 28
3568 4456 4460 28
3569 4461 4462 28
3570 4461 4463 28
3571 4461 4464 28
3572 4461 4465 28
3573 4466 4467 28
3574 4466 4468 28
3575 4466 4469 28
3576 4466 4470 28
3577 4471 4472 28
3578 4471 4473 28
3579 4471 4474 28
3580 4471 4475 28
3581 4476 4477 28
3582 4476 4478 28
3583 4476 4479 28
3584 4476 4480 28
3585 4481 4482 28
3586 4481 4483 28
3587 4481 4484 28
3588 4481 4485 28
3589 4486 4487 28
3590 4486 4488 28
3591 4486 4489 28
3592 4486 4490 28
3593 4491 4492 28
3594 4491 4493 28
3595 4491 4494 28
3596 4491 4495 28
3597 4496 4497 28
3598 4496 4498 28
3599 4496 4499 28
3600 4496 4500 28
3601 4501 4502 28
3602 4501 4503 28
3603 4501 4504 28
3604 4501 4505 28
3605 4506 4507 28
3606 4506 4508 28
3607 4506 4509 28
3608 4506 4510 28
3609 4511 4512 28
3610 4511 4513 28
3611 4511 4514 28
3612 4511 4515 28
3613 4516 4517 28
3614 4516 4518 28
3615 4516 4519 28
3616 4516 4520 28
3617 4521 4522 28
3618 4521 4523 28
3619 4521 4524 28
3620 4521 4525 28
3621 4526 4527 28
3622 4526 4528 28
3623 4526 4529 28
3624 4526 4530 28
3625 4531 4532 28
3626 4531 4533 28
3627 4531 4534 28
3628 4531 4535 28
3629 4536 4537 28
3630 4536 4538 28
3631 4536 4539 28
3632 4536 4540 28
3633 4541 4542 28
3634 4541 4543 28
3635 4541 4544 28
3636 4541 4545 28
3637 4546 4547 28
3638 4546 4548 28
3639 4546 4549 28
3640 4546 4550 28
3641 4551 4552 28
3642 4551 4553 28
3643 4551 4554 28
3644 4551 4555 28
3645 4556 4557 28
3646 4556 4558 28
3647 4556 4559 28
3648 4556 4560 28
3649 4561 4562 28
3650 4561 4563 28
3651 4561 4564 28
3652 4561 4565 28
3653 4566 4567 28
3654 4566 4568 28
3655 4566 4569 28
3656 4566 4570 28
3657 4571 4572 28
3658 4571 4573 28
3659 4571 4574 28
3660 4571 4575 28
3661 4576 4577 28
3662 4576 4578 28
3663 4576 4579 28
3664 4576 4580 28
3665 4581 4582 28
3666 4581 4583 28
3667 4581 4584 28
3668 4581 4585 28
3669 4586 4587 28
3670 4586 4588 28
3671 4586 4589 28
3672 4586 4590 28
3673 4591 4592 28
3674 4591 4593 28
3675 4591 4594 28
3676 4591 4595 28
3677 4596 4597 28
3678 4596 4598 28
3679 4596 4599 28
3680 4596 4600 28
3681 4601 4602 28
3682 4601 4603 28
3683 4601 4604 28
3684 4601 4605 28
3685 4606 4607 28
3686 4606 4608 28
3687 4606 4609 28
3688 4606 4610 28
3689 4611 4612 28
3690 4611 4613 28
3691 4611 4614 28
3692 4611 4615 28
3693 4616 4617 28
3694 4616 4618 28
3695 4616 4619 28
3696 4616 4620 28
3697 4621 4622 28
3698 4621 4623 28
3699 4621 4624 28
3700 4621 4625 28
3701 4626 4627 28
3702 4626 4628 28
3703 4626 4629 28
3704 4626 4630 28
3705 4631 4632 28
3706 4631 4633 28
3707 4631 4634 28
3708 4631 4635 28
3709 4636 4637 28
3710 4636 4638 28
3711 4636 4639 28
3712 4636 4640 28
3713 4641 4642 28
3714 4641 4643 28
3715 4641 4644 28
3716 4641 4645 28
3717 4646 4647 28
3718 4646 4648 28
3719 4646 4649 28
3720 4646 4650 28
3721 4651 4652 28
3722 4651 4653 28
3723 4651 4654 28
3724 4651 4655 28
3725 4656 4657 28
3726 4656 4658 28
3727 4656 4659 28
3728 4656 4660 28
3729 4661 4662 28
3730 4661 4663 28
3731 4661 4664 28
3732 4661 4665 28
3733 4666 4667 28
3734 4666 4668 28
3735 4666 4669 28
3736 4666 4670 28
3737 4671 4672 28
3738 4671 4673 28
3739 4671 4674 28
3740 4671 4675 28
3741 4676 4677 28
3742 4676 4678 28
3743 4676 4679 28
3744 4676 4680 28
3745 4681 4682 28
3746 4681 4683 28
3747 4681 4684 28
3748 4681 4685 28
3749 4686 4687 28
3750 4686 4688 28
3751 4686 4689 28
3752 4686 4690 28
3753 4691 4692 28
3754 4691 4693 28
3755 4691 4694 28
3756 4691 4695 28
3757 4696 4697 28
3758 4696 4698 28
3759 4696 4699 28
3760 4696 4700 28
3761 4701 4702 28
3762 4701 4703 28
3763 4701 4704 28
3764 4701 4705 28
3765 4706 4707 28
3766 4706 4708 28
3767 4706 4709 28
3768 4706 4710 28
3769 4711 4712 28
3770 4711 4713 28
3771 4711 4714 28
3772 4711 4715 28
3773 4716 4717 28
3774 4716 4718 28
3775 4716 4719 28
3776 4716 4720 28
3777 4721 4722 28
3778 4721 4723 28
3779 4721 4724 28
3780 4721 4725 28
3781 4726 4727 28
3782 4726 4728 28
3783 4726 4729 28
3784 4726 4730 28
3785 4731 4732 28
3786 4731 4733 28
3787 4731 4734 28
3788 4731 4735 28
3789 4736 4737 28
3790 4736 4738 28
3791 4736 4739 28
3792 4736 4740 28
3793 4741 4742 28
3794 4741 4743 28
3795 4741 4744 28
3796 4741 4745 28
3797 4746 4747 28
3798 4746 4748 28
3799 4746 4749 28
3800 4746 4750 28
3801 4751 4752 28
3802 4751 4753 28
3803 4751 4754 28
3804 4751 4755 28
3805 4756 4757 28
3806 4756 4758 28
3807 4756 4759 28
3808 4756 4760 28
3809 4761 4762 28
3810 4761 4763 28
3811 4761 4764 28
3812 4761 4765 28
3813 4766 4767 28
3814 4766 4768 28
3815 4766 4769 28
3816 4766 4770 28
3817 4771 4772 28
3818 4771 4773 28
3819 4771 4774 28
3820 4771 4775 28
3821 4776 4777 28
3822 4776 4778 28
3823 4776 4779 28
3824 4776 4780 28
3825 4781 4782 28
3826 4781 4783 28
3827 4781 4784 28
3828 4781 4785 28
3829 4786 4787 28
3830 4786 4788 28
3831 4786 4789 28
3832 4786 4790 28
3833 4791 4792 28
3834 4791 4793 28
3835 4791 4794 28
3836 4791 4795 28
3837 4796 4797 28
3838 4796 4798 28
3839 4796 4799 28
3840 4796 4800 28
3841 4801 4802 28
3842 4801 4803 28
3843 4801 4804 28
3844 4801 4805 28
3845 4806 4807 28
3846 4806 4808 28
3847 4806 4809 28
3848 4806 4810 28
3849 4811 4812 28
3850 4811 4813 28
3851 4811 4814 28
3852 4811 4815 28
3853 4816 4817 28
3854 4816 4818 28
3855 4816 4819 28
3856 4816 4820 28
3857 4821 4822 28
3858 4821 4823 28
3859 4821 4824 28
3860 4821 4825 28
3861 4826 4827 28
3862 4826 4828 28
3863 4826 4829 28
3864 4826 4830 28
3865 4831 4832 28
3866 4831 4833 28
3867 4831 4834 28
3868 4831 4835 28
3869 4836 4837 28
3870 4836 4838 28
3871 4836 4839 28
3872 4836 4840 28
3873 4841 4842 28
3874 4841 4843 28
3875 4841 4844 28
3876 4841 4845 28
3877 4846 4847 28
3878 4846 4848 28
3879 4846 4849 28
3880 4846 4850 28
3881 4851 4852 28
3882 4851 4853 28
3883 4851 4854 28
3884 4851 4855 28
3885 4856 4857 28
3886 4856 4858 28
3887 4856 4859 28
3888 4856 4860 28
3889 4861 4862 28
3890 4861 4863 28
3891 4861 4864 28
3892 4861 4865 28
3893 4866 4867 28
3894 4866 4868 28
3895 4866 4869 28
3896 4866 4870 28
3897 4871 4872 28
3898 4871 4873 28
3899 4871 4874 28
3900 4871 4875 28
3901 4876 4877 28
3902 4876 4878 28
3903 4876 4879 28
3904 4876 4880 28
3905 4881 4882 28
3906 4881 4883 28
3907 4881 4884 28
3908 4881 4885 28
3909 4886 4887 28
3910 4886 4888 28
3911 4886 4889 28
3912 4886 4890 28
3913 4891 4892 28
3914 4891 4893 28
3915 4891 4894 28
3916 4891 4895 28
3917 4896 4897 28
3918 4896 4898 28
3919 4896 4899 28
3920 4896 4900 28
3921 4901 4902 28
3922 4901 4903 28
3923 4901 4904 28
3924 4901 4905 28
3925 4906 4907 28
3926 4906 4908 28
3927 4906 4909 28
3928 4906 4910 28
3929 4911 4912 28
3930 4911 4913 28
3931 4911 4914 28
3932 4911 4915 28
3933 4916 4917 28
3934 4916 4918 28
3935 4916 4919 28
3936 4916 4920 28
3937 4921 4922 28
3938 4921 4923 28
3939 4921 4924 28
3940 4921 4925 28
3941 4926 4927 28
3942 4926 4928 28
3943 4926 4929 28
3944 4926 4930 28
3945 4931 4932 28
3946 4931 4933 28
3947 4931 4934 28
3948 4931 4935 28
3949 4936 4937 28
3950 4936 4938 28
3951 4936 4939 28
3952 4936 4940 28
3953 4941 4942 28
3954 4941 4943 28
3955 4941 4944 28
3956 4941 4945 28
3957 4946 4947 28
3958 4946 4948 28
3959 4946 4949 28
3960 4946 4950 28
3961 4951 4952 28
3962 4951 4953 28
3963 4951 4954 28
3964 4951 4955 28
3965 4956 4957 28
3966 4956 4958 28
3967 4956 4959 28
3968 4956 4960 28
3969 4961 4962 28
3970 4961 4963 28
3971 4961 4964 28
3972 4961 4965 28
3973 4966 4967 28
3974 4966 4968 28
3975 4966 4969 28
3976 4966 4970 28
3977 4971 4972 28
3978 4971 4973 28
3979 4971 4974 28
3980 4971 4975 28
3981 4976 4977 28
3982 4976 4978 28
3983 4976 4979 28
3984 4976 4980 28
3985 4981 4982 28
3986 4981 4983 28
3987 4981 4984 28
3988 4981 4985 28
3989 4986 4987 28
3990 4986 4988 28
3991 4986 4989 28
3992 4986 4990 28
3993 4991 4992 28
3994 4991 4993 28
3995 4991 4994 28
3996 4991 4995 28
3997 4996 4997 28
3998 4996 4998 28
3999 4996 4999 28
4000 4996 5000 28
4001 5001 5002 28
4002 5001 5003 28
4003 5001 5004 28
4004 5001 5005 28
4005 5006 5007 28
4006 5006 5008 28
4007 5006 5009 28
4008 5006 5010 28
4009 5011 5012 28
4010 5011 5013 28
4011 5011 5014 28
4012 5011 5015 28
4013 5016 5017 28
4014 5016 5018 28
4015 5016 5019 28
4016 5016 5020 28
4017 5021 5022 28
4018 5021 5023 28
4019 5021 5024 28
4020 5021 5025 28
4021 5026 5027 28
4022 5026 5028 28
4023 5026 5029 28
4024 5026 5030 28
4025 5031 5032 28
4026 5031 5033 28
4027 5031 5034 28
4028 5031 5035 28
4029 5036 5037 28
4030 5036 5038 28
4031 5036 5039 28
4032 5036 5040 28
4033 5041 5042 28
4034 5041 5043 28
4035 5041 5044 28
4036 5041 5045 28
4037 5046 5047 28
4038 5046 5048 28
4039 5046 5049 28
4040 5046 5050 28
4041 5051 5052 28
4042 5051 5053 28
4043 5051 5054 28
4044 5051 5055 28
4045 5056 5057 28
4046 5056 5058 28
4047 5056 5059 28
4048 5056 5060 28
4049 5061 5062 28
4050 5061 5063 28
4051 5061 5064 28
4052 5061 5065 28
4053 5066 5067 28
4054 5066 5068 28
4055 5066 5069 28
4056 5066 5070 28
4057 5071 5072 28
4058 5071 5073 28
4059 5071 5074 28
4060 5071 5075 28
4061 5076 5077 28
4062 5076 5078 28
4063 5076 5079 28
4064 5076 5080 28
4065 5081 5082 28
4066 5081 5083 28
4067 5081 5084 28
4068 5081 5085 28
4069 5086 5087 28
4070 5086 5088 28
4071 5086 5089 28
4072 5086 5090 28
4073 5091 5092 28
4074 5091 5093 28
4075 5091 5094 28
4076 5091 5095 28
4077 5096 5097 28
4078 5096 5098 28
4079 5096 5099 28
4080 5096 5100 28
4081 5101 5102 28
4082 5101 5103 28
4083 5101 5104 28
4084 5101 5105 28
4085 5106 5107 28
4086 5106 5108 28
4087 5106 5109 28
4088 5106 5110 28
4089 5111 5112 28
4090 5111 5113 28
4091 5111 5114 28
4092 5111 5115 28
4093 5116 5117 28
4094 5116 5118 28
4095 5116 5119 28
4096 5116 5120 28
4097 5121 5122 28
4098 5121 5123 28
4099 5121 5124 28
4100 5121 5125 28
4101 5126 5127 28
4102 5126 5128 28
4103 5126 5129 28
4104 5126 5130 28
4105 5131 5132 28
4106 5131 5133 28
4107 5131 5134 28
4108 5131 5135 28
4109 5136 5137 28
4110 5136 5138 28
4111 5136 5139 28
4112 5136 5140 28
4113 5141 5142 28
4114 5141 5143 28
4115 5141 5144 28
4116 5141 5145 28
4117 5146 5147 28
4118 5146 5148 28
4119 5146 5149 28
4120 5146 5150 28
4121 5151 5152 28
4122 5151 5153 28
4123 5151 5154 28
4124 5151 5155 28
4125 5156 5157 28
4126 5156 5158 28
4127 5156 5159 28
4128 5156 5160 28
4129 5161 5162 28
4130 5161 5163 28
4131 5161 5164 28
4132 5161 5165 28
4133 5166 5167 28
4134 5166 5168 28
4135 5166 5169 28
4136 5166 5170 28
4137 5171 5172 28
4138 5171 5173 28
4139 5171 5174 28
4140 5171 5175 28
4141 5176 5177 28
4142 5176 5178 28
4143 5176 5179 28
4144 5176 5180 28
4145 5181 5182 28
4146 5181 5183 28
4147 5181 5184 28
4148 5181 5185 28
4149 5186 5187 28
4150 5186 5188 28
4151 5186 5189 28
4152 5186 5190 28
4153 5191 5192 28
4154 5191 5193 28
4155 5191 5194 28
4156 5191 5195 28
4157 5196 5197 28
4158 5196 5198 28
4159 5196 5199 28
4160 5196 5200 28
4161 5201 5202 28
4162 5201 5203 28
4163 5201 5204 28
4164 5201 5205 28
4165 5206 5207 28
4166 5206 5208 28
4167 5206 5209 28
4168 5206 5210 28
4169 5211 5212 28
4170 5211 5213 28
4171 5211 5214 28
4172 5211 5215 28
4173 5216 5217 28
4174 5216 5218 28
4175 5216 5219 28
4176 5216 5220 28
4177 5221 5222 28
4178 5221 5223 28
4179 5221 5224 28
4180 5221 5225 28
4181 5226 5227 28
4182 5226 5228 28
4183 5226 5229 28
4184 5226 5230 28
4185 5231 5232 28
4186 5231 5233 28
4187 5231 5234 28
4188 5231 5235 28
4189 5236 5237 28
4190 5236 5238 28
4191 5236 5239 28
4192 5236 5240 28
4193 5241 5242 28
4194 5241 5243 28
4195 5241 5244 28
4196 5241 5245 28
4197 5246 5247 28
4198 5246 5248 28
4199 5246 5249 28
4200 5246 5250 28
4201 5251 5252 28
4202 5251 5253 28
4203 5251 5254 28
4204 5251 5255 28
4205 5256 5257 28
4206 5256 5258 28
4207 5256 5259 28
4208 5256 5260 28
4209 5261 5262 28
4210 5261 5263 28
4211 5261 5264 28
4212 5261 5265 28
4213 5266 5267 28
4214 5266 5268 28
4215 5266 5269 28
4216 5266 5270 28
4217 5271 5272 28
4218 5271 5273 28
4219 5271 5274 28
4220 5271 5275 28
4221 5276 5277 28
4222 5276 5278 28
4223 5276 5279 28
4224 5276 5280 28
4225 5281 5282 28
4226 5281 5283 28
4227 5281 5284 28
4228 5281 5285 28
4229 5286 5287 28
4230 5286 5288 28
4231 5286 5289 28
4232 5286 5290 28
4233 5291 5292 28
4234 5291 5293 28
4235 5291 5294 28
4236 5291 5295 28
4237 5296 5297 28
4238 5296 5298 28
4239 5296 5299 28
4240 5296 5300 28
4241 5301 5302 28
4242 5301 5303 28
4243 5301 5304 28
4244 5301 5305 28
4245 5306 5307 28
4246 5306 5308 28
4247 5306 5309 28
4248 5306 5310 28
4249 5311 5312 28
4250 5311 5313 28
4251 5311 5314 28
4252 5311 5315 28
4253 5316 5317 28
4254 5316 5318 28
4255 5316 5319 28
4256 5316 5320 28
4257 5321 5322 28
4258 5321 5323 28
4259 5321 5324 28
4260 5321 5325 28
4261 5326 5327 28
4262 5326 5328 28
4263 5326 5329 28
4264 5326 5330 28
4265 5331 5332 28
4266 5331 5333 28
4267 5331 5334 28
4268 5331 5335 28
4269 5336 5337 28
4270 5336 5338 28
4271 5336 5339 28
4272 5336 5340 28
4273 5341 5342 28
4274 5341 5343 28
4275 5341 5344 28
4276 5341 5345 28
4277 5346 5347 28
4278 5346 5348 28
4279 5346 5349 28
4280 5346 5350 28
4281 5351 5352 28
4282 5351 5353 28
4283 5351 5354 28
4284 5351 5355 28
4285 5356 5357 28
4286 5356 5358 28
4287 5356 5359 28
4288 5356 5360 28
4289 5361 5362 28
4290 5361 5363 28
4291 5361 5364 28
4292 5361 5365 28
4293 5366 5367 28
4294 5366 5368 28
4295 5366 5369 28
4296 5366 5370 28
4297 5371 5372 28
4298 5371 5373 28
4299 5371 5374 28
4300 5371 5375 28
4301 5376 5377 28
4302 5376 5378 28
4303 5376 5379 28
4304 5376 5380 28
4305 5381 5382 28
4306 5381 5383 28
4307 5381 5384 28
4308 5381 5385 28
4309 5386 5387 28
4310 5386 5388 28
4311 5386 5389 28
4312 5386 5390 28
4313 5391 5392 28
4314 5391 5393 28
4315 5391 5394 28
4316 5391 5395 28
4317 5396 5397 28
4318 5396 5398 28
4319 5396 5399 28
4320 5396 5400 28
4321 5401 5402 28
4322 5401 5403 28
4323 5401 5404 28
4324 5401 5405 28
4325 5406 5407 28
4326 5406 5408 28
4327 5406 5409 28
4328 5406 5410 28
4329 5411 5412 28
4330 5411 5413 28
4331 5411 5414 28
4332 5411 5415 28
4333 5416 5417 28
4334 5416 5418 28
4335 5416 5419 28
4336 5416 5420 28
4337 5421 5422 28
4338 5421 5423 28
4339 5421 5424 28
4340 5421 5425 28
4341 5426 5427 28
4342 5426 5428 28
4343 5426 5429 28
4344 5426 5430 28
4345 5431 5432 28
4346 5431 5433 28
4347 5431 5434 28
4348 5431 5435 28
4349 5436 5437 28
4350 5436 5438 28
4351 5436 5439 28
4352 5436 5440 28
4353 5441 5442 28
4354 5441 5443 28
4355 5441 5444 28
4356 5441 5445 28
4357 5446 5447 28
4358 5446 5448 28
4359 5446 5449 28
4360 5446 5450 28
4361 5451 5452 28
4362 5451 5453 28
4363 5451 5454 28
4364 5451 5455 28
4365 5456 5457 28
4366 5456 5458 28
4367 5456 5459 28
4368 5456 5460 28
4369 5461 5462 28
4370 5461 5463 28
4371 5461 5464 28
4372 5461 5465 28
4373 5466 5467 28
4374 5466 5468 28
4375 5466 5469 28
4376 5466 5470 28
4377 5471 5472 28
4378 5471 5473 28
4379 5471 5474 28
4380 5471 5475 28
4381 5476 5477 28
4382 5476 5478 28
4383 5476 5479 28
4384 5476 5480 28
4385 5481 5482 28
4386 5481 5483 28
4387 5481 5484 28
4388 5481 5485 28
4389 5486 5487 28
4390 5486 5488 28
4391 5486 5489 28
4392 5486 5490 28
4393 5491 5492 28
4394 5491 5493 28
4395 5491 5494 28
4396 5491 5495 28
4397 5496 5497 28
4398 5496 5498 28
4399 5496 5499 28
4400 5496 5500 28
4401 5501 5502 28
4402 5501 5503 28
4403 5501 5504 28
4404 5501 5505 28
4405 5506 5507 28
4406 5506 5508 28
4407 5506 5509 28
4408 5506 5510 28
4409 5511 5512 28
4410 5511 5513 28
4411 5511 5514 28
4412 5511 5515 28
4413 5516 5517 28
4414 5516 5518 28
4415 5516 5519 28
4416 5516 5520 28
4417 5521 5522 28
4418 5521 5523 28
4419 5521 5524 28
4420 5521 5525 28
4421 5526 5527 28
4422 5526 5528 28
4423 5526 5529 28
4424 5526 5530 28
4425 5531 5532 28
4426 5531 5533 28
4427 5531 5534 28
4428 5531 5535 28
4429 5536 5537 28
4430 5536 5538 28
4431 5536 5539 28
4432 5536 5540 28
4433 5541 5542 28
4434 5541 5543 28
4435 5541 5544 28
4436 5541 5545 28
4437 5546 5547 28
4438 5546 5548 28
4439 5546 5549 28
4440 5546 5550 28
4441 5551 5552 28
4442 5551 5553 28
4443 5551 5554 28
4444 5551 5555 28
4445 5556 5557 28
4446 5556 5558 28
4447 5556 5559 28
4448 5556 5560 28
4449 5561 5562 28
4450 5561 5563 28
4451 5561 5564 28
4452 5561 5565 28
4453 5566 5567 28
4454 5566 5568 28
4455 5566 5569 28
4456 5566 5570 28
4457 5571 5572 28
4458 5571 5573 28
4459 5571 5574 28
4460 5571 5575 28
4461 5576 5577 28
4462 5576 5578 28
4463 5576 5579 28
4464 5576 5580 28
4465 5581 5582 28
4466 5581 5583 28
4467 5581 5584 28
4468 5581 5585 28
4469 5586 5587 28
4470 5586 5588 28
4471 5586 5589 28
4472 5586 5590 28
4473 5591 5592 28
4474 5591 5593 28
4475 5591 5594 28
4476 5591 5595 28
4477 5596 5597 28
4478 5596 5598 28
4479 5596 5599 28
4480 5596 5600 28
4481 5601 5602 28
4482 5601 5603 28
4483 5601 5604 28
4484 5601 5605 28
4485 5606 5607 28
4486 5606 5608 28
4487 5606 5609 28
4488 5606 5610 28
4489 5611 5612 28
4490 5611 5613 28
4491 5611 5614 28
4492 5611 5615 28
4493 5616 5617 28
4494 5616 5618 28
4495 5616 5619 28
4496 5616 5620 28
4497 5621 5622 28
4498 5621 5623 28
4499 5621 5624 28
4500 5621 5625 28
4501 5626 5627 28
4502 5626 5628 28
4503 5626 5629 28
4504 5626 5630 28
4505 5631 5632 28
4506 5631 5633 28
4507 5631 5634 28
4508 5631 5635 28
4509 5636 5637 28
4510 5636 5638 28
4511 5636 5639 28
4512 5636 5640 28
4513 5641 5642 28
4514 5641 5643 28
4515 5641 5644 28
4516 5641 5645 28
4517 5646 5647 28
4518 5646 5648 28
4519 5646 5649 28
4520 5646 5650 28
4521 5651 5652 28
4522 5651 5653 28
4523 5651 5654 28
4524 5651 5655 28
4525 5656 5657 28
4526 5656 5658 28
4527 5656 5659 28
4528 5656 5660 28
4529 5661 5662 28
4530 5661 5663 28
4531 5661 5664 28
4532 5661 5665 28
4533 5666 5667 28
4534 5666 5668 28
4535 5666 5669 28
4536 5666 5670 28
4537 5671 5672 28
4538 5671 5673 28
4539 5671 5674 28
4540 5671 5675 28
4541 5676 5677 28
4542 5676 5678 28
4543 5676 5679 28
4544 5676 5680 28
4545 5681 5682 28
4546 5681 5683 28
4547 5681 5684 28
4548 5681 5685 28
4549 5686 5687 28
4550 5686 5688 28
4551 5686 5689 28
4552 5686 5690 28
4553 5691 5692 28
4554 5691 5693 28
4555 5691 5694 28
4556 5691 5695 28
4557 5696 5697 28
4558 5696 5698 28
4559 5696 5699 28
4560 5696 5700 28
4561 5701 5702 28
4562 5701 5703 28
4563 5701 5704 28
4564 5701 5705 28
4565 5706 5707 28
4566 5706 5708 28
4567 5706 5709 28
4568 5706 5710 28
4569 5711 5712 28
4570 5711 5713 28
4571 5711 5714 28
4572 5711 5715 28
4573 5716 5717 28
4574 5716 5718 28
4575 5716 5719 28
4576 5716 5720 28
4577 5721 5722 28
4578 5721 5723 28
4579 5721 5724 28
4580 5721 5725 28
4581 5726 5727 28
4582 5726 5728 28
4583 5726 5729 28
4584 5726 5730 28
4585 5731 5732 28
4586 5731 5733 28
4587 5731 5734 28
4588 5731 5735 28
4589 5736 5737 28
4590 5736 5738 28
4591 5736 5739 28
4592 5736 5740 28
4593 5741 5742 28
4594 5741 5743 28
4595 5741 5744 28
4596 5741 5745 28
4597 5746 5747 28
4598 5746 5748 28
4599 5746 5749 28
4600 5746 5750 28
4601 5751 5752 28
4602 5751 5753 28
4603 5751 5754 28
4604 5751 5755 28
4605 5756 5757 28
4606 5756 5758 28
4607 5756 5759 28
4608 5756 5760 28
4609 5761 5762 28
4610 5761 5763 28
4611 5761 5764 28
4612 5761 5765 28
4613 5766 5767 28
4614 5766 5768 28
4615 5766 5769 28
4616 5766 5770 28
4617 5771 5772 28
4618 5771 5773 28
4619 5771 5774 28
4620 5771 5775 28
4621 5776 5777 28
4622 5776 5778 28
4623 5776 5779 28
4624 5776 5780 28
4625 5781 5782 28
4626 5781 5783 28
4627 5781 5784 28
4628 5781 5785 28
4629 5786 5787 28
4630 5786 5788 28
4631 5786 5789 28
4632 5786 5790 28
4633 5791 5792 28
4634 5791 5793 28
4635 5791 5794 28
4636 5791 5795 28
4637 5796 5797 28
4638 5796 5798 28
4639 5796 5799 28
4640 5796 5800 28
4641 5801 5802 28
4642 5801 5803 28
4643 5801 5804 28
4644 5801 5805 28
4645 5806 5807 28
4646 5806 5808 28
4647 5806 5809 28
4648 5806 5810 28
4649 5811 5812 28
4650 5811 5813 28
4651 5811 5814 28
4652 5811 5815 28
4653 5816 5817 28
4654 5816 5818 28
4655 5816 5819 28
4656 5816 5820 28
4657 5821 5822 28
4658 5821 5823 28
4659 5821 5824 28
4660 5821 5825 28
4661 5826 5827 28
4662 5826 5828 28
4663 5826 5829 28
4664 5826 5830 28
4665 5831 5832 28
4666 5831 5833 28
4667 5831 5834 28
4668 5831 5835 28
4669 5836 5837 28
4670 5836 5838 28
4671 5836 5839 28
4672 5836 5840 28
4673 5841 5842 28
4674 5841 5843 28
4675 5841 5844 28
4676 5841 5845 28
4677 5846 5847 28
4678 5846 5848 28
4679 5846 5849 28
4680 5846 5850 28
4681 5851 5852 28
4682 5851 5853 28
4683 5851 5854 28
4684 5851 5855 28
4685 5856 5857 28
4686 5856 5858 28
4687 5856 5859 28
4688 5856 5860 28
4689 5861 5862 28
4690 5861 5863 28
4691 5861 5864 28
4692 5861 5865 28
4693 5866 5867 28
4694 5866 5868 28
4695 5866 5869 28
4696 5866 5870 28
4697 5871 5872 28
4698 5871 5873 28
4699 5871 5874 28
4700 5871 5875 28
4701 5876 5877 28
4702 5876 5878 28
4703 5876 5879 28
4704 5876 5880 28
4705 5881 5882 28
4706 5881 5883 28
4707 5881 5884 28
4708 5881 5885 28
4709 5886 5887 28
4710 5886 5888 28
4711 5886 5889 28
4712 5886 5890 28
4713 5891 5892 28
4714 5891 5893 28
4715 5891 5894 28
4716 5891 5895 28
4717 5896 5897 28
4718 5896 5898 28
4719 5896 5899 28
4720 5896 5900 28
4721 5901 5902 28
4722 5901 5903 28
4723 5901 5904 28
4724 5901 5905 28
4725 5906 5907 28
4726 5906 5908 28
4727 5906 5909 28
4728 5906 5910 28
4729 5911 5912 28
4730 5911 5913 28
4731 5911 5914 28
4732 5911 5915 28
4733 5916 5917 28
4734 5916 5918 28
4735 5916 5919 28
4736 5916 5920 28
4737 5921 5922 28
4738 5921 5923 28
4739 5921 5924 28
4740 5921 5925 28
4741 5926 5927 28
4742 5926 5928 28
4743 5926 5929 28
4744 5926 5930 28
4745 5931 5932 28
4746 5931 5933 28
4747 5931 5934 28
4748 5931 5935 28
4749 5936 5937 28
4750 5936 5938 28
4751 5936 5939 28
4752 5936 5940 28
4753 5941 5942 28
4754 5941 5943 28
4755 5941 5944 28
4756 5941 5945 28
4757 5946 5947 28
4758 5946 5948 28
4759 5946 5949 28
4760 5946 5950 28
4761 5951 5952 28
4762 5951 5953 28
4763 5951 5954 28
4764 5951 5955 28
4765 5956 5957 28
4766 5956 5958 28
4767 5956 5959 28
4768 5956 5960 28
4769 5961 5962 28
4770 5961 5963 28
4771 5961 5964 28
4772 5961 5965 28
4773 5966 5967 28
4774 5966 5968 28
4775 5966 5969 28
4776 5966 5970 28
4777 5971 5972 28
4778 5971 5973 28
4779 5971 5974 28
4780 5971 5975 28
4781 5976 5977 28
4782 5976 5978 28
4783 5976 5979 28
4784 5976 5980 28
4785 5981 5982 28
4786 5981 5983 28
4787 5981 5984 28
4788 5981 5985 28
4789 5986 5987 28
4790 5986 5988 28
4791 5986 5989 28
4792 5986 5990 28
4793 5991 5992 28
4794 5991 5993 28
4795 5991 5994 28
4796 5991 5995 28
4797 5996 5997 28
4798 5996 5998 28
4799 5996 5999 28
4800 5996 6000 28
4801 6001 6002 28
4802 6001 6003 28
4803 6001 6004 28
4804 6001 6005 28
4805 6006 6007 28
4806 6006 6008 28
4807 6006 6009 28
4808 6006 6010 28
4809 6011 6012 28
4810 6011 6013 28
4811 6011 6014 28
4812 6011 6015 28
4813 6016 6017 28
4814 6016 6018 28
4815 6016 6019 28
4816 6016 6020 28
4817 6021 6022 28
4818 6021 6023 28
4819 6021 6024 28
4820 6021 6025 28
4821 6026 6027 28
4822 6026 6028 28
4823 6026 6029 28
4824 6026 6030 28
4825 6031 6032 28
4826 6031 6033 28
4827 6031 6034 28
4828 6031 6035 28
4829 6036 6037 28
4830 6036 6038 28
4831 6036 6039 28
4832 6036 6040 28
4833 6041 6042 28
4834 6041 6043 28
4835 6041 6044 28
4836 6041 6045 28
4837 6046 6047 28
4838 6046 6048 28
4839 6046 6049 28
4840 6046 6050 28
4841 6051 6052 28
4842 6051 6053 28
4843 6051 6054 28
4844 6051 6055 28
4845 6056 6057 28
4846 6056 6058 28
4847 6056 6059 28
4848 6056 6060 28
4849 6061 6062 28
4850 6061 6063 28
4851 6061 6064 28
4852 6061 6065 28
4853 6066 6067 28
4854 6066 6068 28
4855 6066 6069 28
4856 6066 6070 28
4857 6071 6072 28
4858 6071 6073 28
4859 6071 6074 28
4860 6071 6075 28
4861 6076 6077 28
4862 6076 6078 28
4863 6076 6079 28
4864 6076 6080 28
4865 6081 6082 28
4866 6081 6083 28
4867 6081 6084 28
4868 6081 6085 28
4869 6086 6087 28
4870 6086 6088 28
4871 6086 6089 28
4872 6086 6090 28
4873 6091 6092 28
4874 6091 6093 28
4875 6091 6094 28
4876 6091 6095 28
4877 6096 6097 28
4878 6096 6098 28
4879 6096 6099 28
4880 6096 6100 28
4881 6101 6102 28
4882 6101 6103 28
4883 6101 6104 28
4884 6101 6105 28
4885 6106 6107 28
4886 6106 6108 28
4887 6106 6109 28
4888 6106 6110 28
4889 6111 6112 28
4890 6111 6113 28
4891 6111 6114 28
4892 6111 6115 28
4893 6116 6117 28
4894 6116 6118 28
4895 6116 6119 28
4896 6116 6120 28
4897 6121 6122 28
4898 6121 6123 28
4899 6121 6124 28
4900 6121 6125 28
4901 6126 6127 28
4902 6126 6128 28
4903 6126 6129 28
4904 6126 6130 28
4905 6131 6132 28
4906 6131 6133 28
4907 6131 6134 28
4908 6131 6135 28
4909 6136 6137 28
4910 6136 6138 28
4911 6136 6139 28
4912 6136 6140 28
4913 6141 6142 28
4914 6141 6143 28
4915 6141 6144 28
4916 6141 6145 28
4917 6146 6147 28
4918 6146 6148 28
4919 6146 6149 28
4920 6146 6150 28
4921 6151 6152 28
4922 6151 6153 28
4923 6151 6154 28
4924 6151 6155 28
4925 6156 6157 28
4926 6156 6158 28
4927 6156 6159 28
4928 6156 6160 28
4929 6161 6162 28
4930 6161 6163 28
4931 6161 6164 28
4932 6161 6165 28
4933 6166 6167 28
4934 6166 6168 28
4935 6166 6169 28
4936 6166 6170 28
4937 6171 6172 28
4938 6171 6173 28
4939 6171 6174 28
4940 6171 6175 28
4941 6176 6177 28
4942 6176 6178 28
4943 6176 6179 28
4944 6176 6180 28
4945 6181 6182 28
4946 6181 6183 28
4947 6181 6184 28
4948 6181 6185 28
4949 6186 6187 28
4950 6186 6188 28
4951 6186 6189 28
4952 6186 6190 28
4953 6191 6192 28
4954 6191 6193 28
4955 6191 6194 28
4956 6191 6195 28
4957 6196 6197 28
4958 6196 6198 28
4959 6196 6199 28
4960 6196 6200 28
4961 6201 6202 28
4962 6201 6203 28
4963 6201 6204 28
4964 6201 6205 28
4965 6206 6207 28
4966 6206 6208 28
4967 6206 6209 28
4968 6206 6210 28
4969 6211 6212 28
4970 6211 6213 28
4971 6211 6214 28
4972 6211 6215 28
4973 6216 6217 28
4974 6216 6218 28
4975 6216 6219 28
4976 6216 6220 28
4977 6221 6222 28
4978 6221 6223 28
4979 6221 6224 28
4980 6221 6225 28
4981 6226 6227 28
4982 6226 6228 28
4983 6226 6229 28
4984 6226 6230 28
4985 6231 6232 28
4986 6231 6233 28
4987 6231 6234 28
4988 6231 6235 28
4989 6236 6237 28
4990 6236 6238 28
4991 6236 6239 28
4992 6236 6240 28
4993 6241 6242 28
4994 6241 6243 28
4995 6241 6244 28
4996 6241 6245 28
4997 6246 6247 28
4998 6246 6248 28
4999 6246 6249 28
5000 6246 6250 28
5001 6251 6252 28
5002 6251 6253 28
5003 6251 6254 28
5004 6251 6255 28
5005 6256 6257 28
5006 6256 6258 28
5007 6256 6259 28
5008 6256 6260 28
5009 6261 6262 28
5010 6261 6263 28
5011 6261 6264 28
5012 6261 6265 28
5013 6266 6267 28
5014 6266 6268 28
5015 6266 6269 28
5016 6266 6270 28
5017 6271 6272 28
5018 6271 6273 28
5019 6271 6274 28
5020 6271 6275 28
5021 6276 6277 28
5022 6276 6278 28
5023 6276 6279 28
5024 6276 6280 28
5025 6281 6282 28
5026 6281 6283 28
5027 6281 6284 28
5028 6281 6285 28
5029 6286 6287 28
5030 6286 6288 28
5031 6286 6289 28
5032 6286 6290 28
5033 6291 6292 28
5034 6291 6293 28
5035 6291 6294 28
5036 6291 6295 28
5037 6296 6297 28
5038 6296 6298 28
5039 6296 6299 28
5040 6296 6300 28
5041 6301 6302 28
5042 6301 6303 28
5043 6301 6304 28
5044 6301 6305 28
5045 6306 6307 28
5046 6306 6308 28
5047 6306 6309 28
5048 6306 6310 28
5049 6311 6312 28
5050 6311 6313 28
5051 6311 6314 28
5052 6311 6315 28
5053 6316 6317 28
5054 6316 6318 28
5055 6316 6319 28
5056 6316 6320 28
5057 6321 6322 28
5058 6321 6323 28
5059 6321 6324 28
5060 6321 6325 28
5061 6326 6327 28
5062 6326 6328 28
5063 6326 6329 28
5064 6326 6330 28
5065 6331 6332 28
5066 6331 6333 28
5067 6331 6334 28
5068 6331 6335 28
5069 6336 6337 28
5070 6336 6338 28
5071 6336 6339 28
5072 6336 6340 28
5073 6341 6342 28
5074 6341 6343 28
5075 6341 6344 28
5076 6341 6345 28
5077 6346 6347 28
5078 6346 6348 28
5079 6346 6349 28
5080 6346 6350 28
5081 6351 6352 28
5082 6351 6353 28
5083 6351 6354 28
5084 6351 6355 28
5085 6356 6357 28
5086 6356 6358 28
5087 6356 6359 28
5088 6356 6360 28
5089 6361 6362 28
5090 6361 6363 28
5091 6361 6364 28
5092 6361 6365 28
5093 6366 6367 28
5094 6366 6368 28
5095 6366 6369 28
5096 6366 6370 28
5097 6371 6372 28
5098 6371 6373 28
5099 6371 6374 28
5100 6371 6375 28
5101 6376 6377 28
5102 6376 6378 28
5103 6376 6379 28
5104 6376 6380 28
5105 6381 6382 28
5106 6381 6383 28
5107 6381 6384 28
5108 6381 6385 28
5109 6386 6387 28
5110 6386 6388 28
5111 6386 6389 28
5112 6386 6390 28
5113 6391 6392 28
5114 6391 6393 28
5115 6391 6394 28
5116 6391 6395 28
5117 6396 6397 28
5118 6396 6398 28
5119 6396 6399 28
5120 6396 6400 28
5121 6401 6402 28
5122 6401 6403 28
5123 6401 6404 28
5124 6401 6405 28
5125 6406 6407 28
5126 6406 6408 28
5127 6406 6409 28
5128 6406 6410 28
5129 6411 6412 28
5130 6411 6413 28
5131 6411 6414 28
5132 6411 6415 28
5133 6416 6417 28
5134 6416 6418 28
5135 6416 6419 28
5136 6416 6420 28
5137 6421 6422 28
5138 6421 6423 28
5139 6421 6424 28
5140 6421 6425 28
5141 6426 6427 28
5142 6426 6428 28
5143 6426 6429 28
5144 6426 6430 28
5145 6431 6432 28
5146 6431 6433 28
5147 6431 6434 28
5148 6431 6435 28
5149 6436 6437 28
5150 6436 6438 28
5151 6436 6439 28
5152 6436 6440 28
5153 6441 6442 28
5154 6441 6443 28
5155 6441 6444 28
5156 6441 6445 28
5157 6446 6447 28
5158 6446 6448 28
5159 6446 6449 28
5160 6446 6450 28
5161 6451 6452 28
5162 6451 6453 28
5163 6451 6454 28
5164 6451 6455 28
5165 6456 6457 28
5166 6456 6458 28
5167 6456 6459 28
5168 6456 6460 28
5169 6461 6462 28
5170 6461 6463 28
5171 6461 6464 28
5172 6461 6465 28
5173 6466 6467 28
5174 6466 6468 28
5175 6466 6469 28
5176 6466 6470 28
5177 6471 6472 28
5178 6471 6473 28
5179 6471 6474 28
5180 6471 6475 28
5181 6476 6477 28
5182 6476 6478 28
5183 6476 6479 28
5184 6476 6480 28
5185 6481 6482 28
5186 6481 6483 28
5187 6481 6484 28
5188 6481 6485 28
5189 6486 6487 28
5190 6486 6488 28
5191 6486 6489 28
5192 6486 6490 28
5193 6491 6492 28
5194 6491 6493 28
5195 6491 6494 28
5196 6491 6495 28
5197 6496 6497 28
5198 6496 6498 28
5199 6496 6499 28
5200 6496 6500 28
5201 6501 6502 28
5202 6501 6503 28
5203 6501 6504 28
5204 6501 6505 28
5205 6506 6507 28
5206 6506 6508 28
5207 6506 6509 28
5208 6506 6510 28
5209 6511 6512 28
5210 6511 6513 28
5211 6511 6514 28
5212 6511 6515 28
5213 6516 6517 28
5214 6516 6518 28
5215 6516 6519 28
5216 6516 6520 28
5217 6521 6522 28
5218 6521 6523 28
5219 6521 6524 28
5220 6521 6525 28
5221 6526 6527 28
5222 6526 6528 28
5223 6526 6529 28
5224 6526 6530 28
5225 6531 6532 28
5226 6531 6533 28
5227 6531 6534 28
5228 6531 6535 28
5229 6536 6537 28
5230 6536 6538 28
5231 6536 6539 28
5232 6536 6540 28
5233 6541 6542 28
5234 6541 6543 28
5235 6541 6544 28
5236 6541 6545 28
5237 6546 6547 28
5238 6546 6548 28
5239 6546 6549 28
5240 6546 6550 28
5241 6551 6552 28
5242 6551 6553 28
5243 6551 6554 28
5244 6551 6555 28
5245 6556 6557 28
5246 6556 6558 28
5247 6556 6559 28
5248 6556 6560 28
5249 6561 6562 28
5250 6561 6563 28
5251 6561 6564 28
5252 6561 6565 28
5253 6566 6567 28
5254 6566 6568 28
5255 6566 6569 28
5256 6566 6570 28
5257 6571 6572 28
5258 6571 6573 28
5259 6571 6574 28
5260 6571 6575 28
5261 6576 6577 28
5262 6576 6578 28
5263 6576 6579 28
5264 6576 6580 28
5265 6581 6582 28
5266 6581 6583 28
5267 6581 6584 28
5268 6581 6585 28
5269 6586 6587 28
5270 6586 6588 28
5271 6586 6589 28
5272 6586 6590 28
5273 6591 6592 28
5274 6591 6593 28
5275 6591 6594 28
5276 6591 6595 28
5277 6596 6597 28
5278 6596 6598 28
5279 6596 6599 28
5280 6596 6600 28
5281 6601 6602 28
5282 6601 6603 28
5283 6601 6604 28
5284 6601 6605 28
5285 6606 6607 28
5286 6606 6608 28
5287 6606 6609 28
5288 6606 6610 28
5289 6611 6612 28
5290 6611 6613 28
5291 6611 6614 28
5292 6611 6615 28
5293 6616 6617 28
5294 6616 6618 28
5295 6616 6619 28
5296 6616 6620 28
5297 6621 6622 28
5298 6621 6623 28
5299 6621 6624 28
5300 6621 6625 28
5301 6626 6627 28
5302 6626 6628 28
5303 6626 6629 28
5304 6626 6630 28
5305 6631 6632 28
5306 6631 6633 28
5307 6631 6634 28
5308 6631 6635 28
5309 6636 6637 28
5310 6636 6638 28
5311 6636 6639 28
5312 6636 6640 28
5313 6641 6642 28
5314 6641 6643 28
5315 6641 6644 28
5316 6641 6645 28
5317 6646 6647 28
5318 6646 6648 28
5319 6646 6649 28
5320 6646 6650 28
5321 6651 6652 28
5322 6651 6653 28
5323 6651 6654 28
5324 6651 6655 28
5325 6656 6657 28
5326 6656 6658 28
5327 6656 6659 28
5328 6656 6660 28
5329 6661 6662 28
5330 6661 6663 28
5331 6661 6664 28
5332 6661 6665 28
5333 6666 6667 28
5334 6666 6668 28
5335 6666 6669 28
5336 6666 6670 28
5337 6671 6672 28
5338 6671 6673 28
5339 6671 6674 28
5340 6671 6675 28
5341 6676 6677 28
5342 6676 6678 28
5343 6676 6679 28
5344 6676 6680 28
5345 6681 6682 28
5346 6681 6683 28
5347 6681 6684 28
5348 6681 6685 28
5349 6686 6687 28
5350 6686 6688 28
5351 6686 6689 28
5352 6686 6690 28
5353 6691 6692 28
5354 6691 6693 28
5355 6691 6694 28
5356 6691 6695 28
5357 6696 6697 28
5358 6696 6698 28
5359 6696 6699 28
5360 6696 6700 28
5361 6701 6702 28
5362 6701 6703 28
5363 6701 6704 28
5364 6701 6705 28
5365 6706 6707 28
5366 6706 6708 28
5367 6706 6709 28
5368 6706 6710 28
5369 6711 6712 28
5370 6711 6713 28
5371 6711 6714 28
5372 6711 6715 28
5373 6716 6717 28
5374 6716 6718 28
5375 6716 6719 28
5376 6716 6720 28
5377 6721 6722 28
5378 6721 6723 28
5379 6721 6724 28
5380 6721 6725 28
5381 6726 6727 28
5382 6726 6728 28
5383 6726 6729 28
5384 6726 6730 28
5385 6731 6732 28
5386 6731 6733 28
5387 6731 6734 28
5388 6731 6735 28
5389 6736 6737 28
5390 6736 6738 28
5391 6736 6739 28
5392 6736 6740 28
5393 6741 6742 28
5394 6741 6743 28
5395 6741 6744 28
5396 6741 6745 28
5397 6746 6747 28
5398 6746 6748 28
5399 6746 6749 28
5400 6746 6750 28
5401 6751 6752 28
5402 6751 6753 28
5403 6751 6754 28
5404 6751 6755 28
5405 6756 6757 28
5406 6756 6758 28
5407 6756 6759 28
5408 6756 6760 28
5409 6761 6762 28
5410 6761 6763 28
5411 6761 6764 28
5412 6761 6765 28
5413 6766 6767 28
5414 6766 6768 28
5415 6766 6769 28
5416 6766 6770 28
5417 6771 6772 28
5418 6771 6773 28
5419 6771 6774 28
5420 6771 6775 28
5421 6776 6777 28
5422 6776 6778 28
5423 6776 6779 28
5424 6776 6780 28
5425 6781 6782 28
5426 6781 6783 28
5427 6781 6784 28
5428 6781 6785 28
5429 6786 6787 28
5430 6786 6788 28
5431 6786 6789 28
5432 6786 6790 28
5433 6791 6792 28
5434 6791 6793 28
5435 6791 6794 28
5436 6791 6795 28
5437 6796 6797 28
5438 6796 6798 28
5439 6796 6799 28
5440 6796 6800 28
5441 6801 6802 28
5442 6801 6803 28
5443 6801 6804 28
5444 6801 6805 28
5445 6806 6807 28
5446 6806 6808 28
5447 6806 6809 28
5448 6806 6810 28
5449 6811 6812 28
5450 6811 6813 28
5451 6811 6814 28
5452 6811 6815 28
5453 6816 6817 28
5454 6816 6818 28
5455 6816 6819 28
5456 6816 6820 28
5457 6821 6822 28
5458 6821 6823 28
5459 6821 6824 28
5460 6821 6825 28
5461 6826 6827 28
5462 6826 6828 28
5463 6826 6829 28
5464 6826 6830 28
5465 6831 6832 28
5466 6831 6833 28
5467 6831 6834 28
5468 6831 6835 28
5469 6836 6837 28
5470 6836 6838 28
5471 6836 6839 28
5472 6836 6840 28
5473 6841 6842 28
5474 6841 6843 28
5475 6841 6844 28
5476 6841 6845 28
5477 6846 6847 28
5478 6846 6848 28
5479 6846 6849 28
5480 6846 6850 28
5481 6851 6852 28
5482 6851 6853 28
5483 6851 6854 28
5484 6851 6855 28
5485 6856 6857 28
5486 6856 6858 28
5487 6856 6859 28
5488 6856 6860 28
5489 6861 6862 28
5490 6861 6863 28
5491 6861 6864 28
5492 6861 6865 28
5493 6866 6867 28
5494 6866 6868 28
5495 6866 6869 28
5496 6866 6870 28
5497 6871 6872 28
5498 6871 6873 28
5499 6871 6874 28
5500 6871 6875 28
5501 6876 6877 28
5502 6876 6878 28
5503 6876 6879 28
5504 6876 6880 28
5505 6881 6882 28
5506 6881 6883 28
5507 6881 6884 28
5508 6881 6885 28
5509 6886 6887 28
5510 6886 6888 28
5511 6886 6889 28
5512 6886 6890 28
5513 6891 6892 28
5514 6891 6893 28
5515 6891 6894 28
5516 6891 6895 28
5517 6896 6897 28
5518 6896 6898 28
5519 6896 6899 28
5520 6896 6900 28
5521 6901 6902 28
5522 6901 6903 28
5523 6901 6904 28
5524 6901 6905 28
5525 6906 6907 28
5526 6906 6908 28
5527 6906 6909 28
5528 6906 6910 28
5529 6911 6912 28
5530 6911 6913 28
5531 6911 6914 28
5532 6911 6915 28
5533 6916 6917 28
5534 6916 6918 28
5535 6916 6919 28
5536 6916 6920 28
5537 6921 6922 28
5538 6921 6923 28
5539 6921 6924 28
5540 6921 6925 28
5541 6926 6927 28
5542 6926 6928 28
5543 6926 6929 28
5544 6926 6930 28
5545 6931 6932 28
5546 6931 6933 28
5547 6931 6934 28
5548 6931 6935 28
5549 6936 6937 28
5550 6936 6938 28
5551 6936 6939 28
5552 6936 6940 28
5553 6941 6942 28
5554 6941 6943 28
5555 6941 6944 28
5556 6941 6945 28
5557 6946 6947 28
5558 6946 6948 28
5559 6946 6949 28
5560 6946 6950 28
5561 6951 6952 28
5562 6951 6953 28
5563 6951 6954 28
5564 6951 6955 28
5565 6956 6957 28
5566 6956 6958 28
5567 6956 6959 28
5568 6956 6960 28
5569 6961 6962 28
5570 6961 6963 28
5571 6961 6964 28
5572 6961 6965 28
5573 6966 6967 28
5574 6966 6968 28
5575 6966 6969 28
5576 6966 6970 28
5577 6971 6972 28
5578 6971 6973 28
5579 6971 6974 28
5580 6971 6975 28
5581 6976 6977 28
5582 6976 6978 28
5583 6976 6979 28
5584 6976 6980 28
5585 6981 6982 28
5586 6981 6983 28
5587 6981 6984 28
5588 6981 6985 28
5589 6986 6987 28
5590 6986 6988 28
5591 6986 6989 28
5592 6986 6990 28
5593 6991 6992 28
5594 6991 6993 28
5595 6991 6994 28
5596 6991 6995 28
5597 6996 6997 28
5598 6996 6998 28
5599 6996 6999 28
5600 6996 7000 28
5601 7001 7002 28
5602 7001 7003 28
5603 7001 7004 28
5604 7001 7005 28
5605 7006 7007 28
5606 7006 7008 28
5607 7006 7009 28
5608 7006 7010 28
5609 7011 7012 28
5610 7011 7013 28
5611 7011 7014 28
5612 7011 7015 28
5613 7016 7017 28
5614 7016 7018 28
5615 7016 7019 28
5616 7016 7020 28
5617 7021 7022 28
5618 7021 7023 28
5619 7021 7024 28
5620 7021 7025 28
5621 7026 7027 28
5622 7026 7028 28
5623 7026 7029 28
5624 7026 7030 28
5625 7031 7032 28
5626 7031 7033 28
5627 7031 7034 28
5628 7031 7035 28
5629 7036 7037 28
5630 7036 7038 28
5631 7036 7039 28
5632 7036 7040 28
5633 7041 7042 28
5634 7041 7043 28
5635 7041 7044 28
5636 7041 7045 28
5637 7046 7047 28
5638 7046 7048 28
5639 7046 7049 28
5640 7046 7050 28
5641 7051 7052 28
5642 7051 7053 28
5643 7051 7054 28
5644 7051 7055 28
5645 7056 7057 28
5646 7056 7058 28
5647 7056 7059 28
5648 7056 7060 28
5649 7061 7062 28
5650 7061 7063 28
5651 7061 7064 28
5652 7061 7065 28
5653 7066 7067 28
5654 7066 7068 28
5655 7066 7069 28
5656 7066 7070 28
5657 7071 7072 28
5658 7071 7073 28
5659 7071 7074 28
5660 7071 7075 28
5661 7076 7077 28
5662 7076 7078 28
5663 7076 7079 28
5664 7076 7080 28
5665 7081 7082 28
5666 7081 7083 28
5667 7081 7084 28
5668 7081 7085 28
5669 7086 7087 28
5670 7086 7088 28
5671 7086 7089 28
5672 7086 7090 28
5673 7091 7092 28
5674 7091 7093 28
5675 7091 7094 28
5676 7091 7095 28
5677 7096 7097 28
5678 7096 7098 28
5679 7096 7099 28
5680 7096 7100 28
5681 7101 7102 28
5682 7101 7103 28
5683 7101 7104 28
5684 7101 7105 28
5685 7106 7107 28
5686 7106 7108 28
5687 7106 7109 28
5688 7106 7110 28
5689 7111 7112 28
5690 7111 7113 28
5691 7111 7114 28
5692 7111 7115 28
5693 7116 7117 28
5694 7116 7118 28
5695 7116 7119 28
5696 7116 7120 28
5697 7121 7122 28
5698 7121 7123 28
5699 7121 7124 28
5700 7121 7125 28
5701 7126 7127 28
5702 7126 7128 28
5703 7126 7129 28
5704 7126 7130 28
5705 7131 7132 28
5706 7131 7133 28
5707 7131 7134 28
5708 7131 7135 28
5709 7136 7137 28
5710 7136 7138 28
5711 7136 7139 28
5712 7136 7140 28
5713 7141 7142 28
5714 7141 7143 28
5715 7141 7144 28
5716 7141 7145 28
5717 7146 7147 28
5718 7146 7148 28
5719 7146 7149 28
5720 7146 7150 28
5721 7151 7152 28
5722 7151 7153 28
5723 7151 7154 28
5724 7151 7155 28
5725 7156 7157 28
5726 7156 7158 28
5727 7156 7159 28
5728 7156 7160 28
5729 7161 7162 28
5730 7161 7163 28
5731 7161 7164 28
5732 7161 7165 28
5733 7166 7167 28
5734 7166 7168 28
5735 7166 7169 28
5736 7166 7170 28
5737 7171 7172 28
5738 7171 7173 28
5739 7171 7174 28
5740 7171 7175 28
5741 7176 7177 28
5742 7176 7178 28
5743 7176 7179 28
5744 7176 7180 28
5745 7181 7182 28
5746 7181 7183 28
5747 7181 7184 28
5748 7181 7185 28
5749 7186 7187 28
5750 7186 7188 28
5751 7186 7189 28
5752 7186 7190 28
5753 7191 7192 28
5754 7191 7193 28
5755 7191 7194 28
5756 7191 7195 28
5757 7196 7197 28
5758 7196 7198 28
5759 7196 7199 28
5760 7196 7200 28
5761 7201 7202 28
5762 7201 7203 28
5763 7201 7204 28
5764 7201 7205 28
5765 7206 7207 28
5766 7206 7208 28
5767 7206 7209 28
5768 7206 7210 28
5769 7211 7212 28
5770 7211 7213 28
5771 7211 7214 28
5772 7211 7215 28
5773 7216 7217 28
5774 7216 7218 28
5775 7216 7219 28
5776 7216 7220 28
5777 7221 7222 28
5778 7221 7223 28
5779 7221 7224 28
5780 7221 7225 28
5781 7226 7227 28
5782 7226 7228 28
5783 7226 7229 28
5784 7226 7230 28
5785 7231 7232 28
5786 7231 7233 28
5787 7231 7234 28
5788 7231 7235 28
5789 7236 7237 28
5790 7236 7238 28
5791 7236 7239 28
5792 7236 7240 28
5793 7241 7242 28
5794 7241 7243 28
5795 7241 7244 28
5796 7241 7245 28
5797 7246 7247 28
5798 7246 7248 28
5799 7246 7249 28
5800 7246 7250 28
5801 7251 7252 28
5802 7251 7253 28
5803 7251 7254 28
5804 7251 7255 28
5805 7256 7257 28
5806 7256 7258 28
5807 7256 7259 28
5808 7256 7260 28
5809 7261 7262 28
5810 7261 7263 28
5811 7261 7264 28
5812 7261 7265 28
5813 7266 7267 28
5814 7266 7268 28
5815 7266 7269 28
5816 7266 7270 28
5817 7271 7272 28
5818 7271 7273 28
5819 7271 7274 28
5820 7271 7275 28
5821 7276 7277 28
5822 7276 7278 28
5823 7276 7279 28
5824 7276 7280 28
5825 7281 7282 28
5826 7281 7283 28
5827 7281 7284 28
5828 7281 7285 28
5829 7286 7287 28
5830 7286 7288 28
5831 7286 7289 28
5832 7286 7290 28
5833 7291 7292 28
5834 7291 7293 28
5835 7291 7294 28
5836 7291 7295 28
5837 7296 7297 28
5838 7296 7298 28
5839 7296 7299 28
5840 7296 7300 28
5841 7301 7302 28
5842 7301 7303 28
5843 7301 7304 28
5844 7301 7305 28
5845 7306 7307 28
5846 7306 7308 28
5847 7306 7309 28
5848 7306 7310 28
5849 7311 7312 28
5850 7311 7313 28
5851 7311 7314 28
5852 7311 7315 28
5853 7316 7317 28
5854 7316 7318 28
5855 7316 7319 28
5856 7316 7320 28
5857 7321 7322 28
5858 7321 7323 28
5859 7321 7324 28
5860 7321 7325 28
5861 7326 7327 28
5862 7326 7328 28
5863 7326 7329 28
5864 7326 7330 28
5865 7331 7332 28
5866 7331 7333 28
5867 7331 7334 28
5868 7331 7335 28
5869 7336 7337 28
5870 7336 7338 28
5871 7336 7339 28
5872 7336 7340 28
5873 7341 7342 28
5874 7341 7343 28
5875 7341 7344 28
5876 7341 7345 28
5877 7346 7347 28
5878 7346 7348 28
5879 7346 7349 28
5880 7346 7350 28
5881 7351 7352 28
5882 7351 7353 28
5883 7351 7354 28
5884 7351 7355 28
5885 7356 7357 28
5886 7356 7358 28
5887 7356 7359 28
5888 7356 7360 28
5889 7361 7362 28
5890 7361 7363 28
5891 7361 7364 28
5892 7361 7365 28
5893 7366 7367 28
5894 7366 7368 28
5895 7366 7369 28
5896 7366 7370 28
5897 7371 7372 28
5898 7371 7373 28
5899 7371 7374 28
5900 7371 7375 28
5901 7376 7377 28
5902 7376 7378 28
5903 7376 7379 28
5904 7376 7380 28
5905 7381 7382 28
5906 7381 7383 28
5907 7381 7384 28
5908 7381 7385 28
5909 7386 7387 28
5910 7386 7388 28
5911 7386 7389 28
5912 7386 7390 28
5913 7391 7392 28
5914 7391 7393 28
5915 7391 7394 28
5916 7391 7395 28
5917 7396 7397 28
5918 7396 7398 28
5919 7396 7399 28
5920 7396 7400 28
5921 7401 7402 28
5922 7401 7403 28
5923 7401 7404 28
5924 7401 7405 28
5925 7406 7407 28
5926 7406 7408 28
5927 7406 7409 28
5928 7406 7410 28
5929 7411 7412 28
5930 7411 7413 28
5931 7411 7414 28
5932 7411 7415 28
5933 7416 7417 28
5934 7416 7418 28
5935 7416 7419 28
5936 7416 7420 28
5937 7421 7422 28
5938 7421 7423 28
5939 7421 7424 28
5940 7421 7425 28
5941 7426 7427 28
5942 7426 7428 28
5943 7426 7429 28
5944 7426 7430 28
5945 7431 7432 28
5946 7431 7433 28
5947 7431 7434 28
5948 7431 7435 28
5949 7436 7437 28
5950 7436 7438 28
5951 7436 7439 28
5952 7436 7440 28
5953 7441 7442 28
5954 7441 7443 28
5955 7441 7444 28
5956 7441 7445 28
5957 7446 7447 28
5958 7446 7448 28
5959 7446 7449 28
5960 7446 7450 28
5961 7451 7452 28
5962 7451 7453 28
5963 7451 7454 28
5964 7451 7455 28
5965 7456 7457 28
5966 7456 7458 28
5967 7456 7459 28
5968 7456 7460 28
5969 7461 7462 28
5970 7461 7463 28
5971 7461 7464 28
5972 7461 7465 28
5973 7466 7467 28
5974 7466 7468 28
5975 7466 7469 28
5976 7466 7470 28
5977 7471 7472 28
5978 7471 7473 28
5979 7471 7474 28
5980 7471 7475 28
5981 7476 7477 28
5982 7476 7478 28
5983 7476 7479 28
5984 7476 7480 28
5985 7481 7482 28
5986 7481 7483 28
5987 7481 7484 28
5988 7481 7485 28
5989 7486 7487 28
5990 7486 7488 28
5991 7486 7489 28
5992 7486 7490 28
5993 7491 7492 28
5994 7491 7493 28
5995 7491 7494 28
5996 7491 7495 28
5997 7496 7497 28
5998 7496 7498 28
5999 7496 7499 28
6000 7496 7500 28
6001 7501 7502 28
6002 7501 7503 28
6003 7501 7504 28
6004 7501 7505 28
6005 7506 7507 28
6006 7506 7508 28
6007 7506 7509 28
6008 7506 7510 28
6009 7511 7512 28
6010 7511 7513 28
6011 7511 7514 28
6012 7511 7515 28
6013 7516 7517 28
6014 7516 7518 28
6015 7516 7519 28
6016 7516 7520 28
6017 7521 7522 28
6018 7521 7523 28
6019 7521 7524 28
6020 7521 7525 28
6021 7526 7527 28
6022 7526 7528 28
6023 7526 7529 28
6024 7526 7530 28
6025 7531 7532 28
6026 7531 7533 28
6027 7531 7534 28
6028 7531 7535 28
6029 7536 7537 28
6030 7536 7538 28
6031 7536 7539 28
6032 7536 7540 28
6033 7541 7542 28
6034 7541 7543 28
6035 7541 7544 28
6036 7541 7545 28
6037 7546 7547 28
6038 7546 7548 28
6039 7546 7549 28
6040 7546 7550 28
6041 7551 7552 28
6042 7551 7553 28
6043 7551 7554 28
6044 7551 7555 28
6045 7556 7557 28
6046 7556 7558 28
6047 7556 7559 28
6048 7556 7560 28
6049 7561 7562 28
6050 7561 7563 28
6051 7561 7564 28
6052 7561 7565 28
6053 7566 7567 28
6054 7566 7568 28
6055 7566 7569 28
6056 7566 7570 28
6057 7571 7572 28
6058 7571 7573 28
6059 7571 7574 28
6060 7571 7575 28
6061 7576 7577 28
6062 7576 7578 28
6063 7576 7579 28
6064 7576 7580 28
6065 7581 7582 28
6066 7581 7583 28
6067 7581 7584 28
6068 7581 7585 28
6069 7586 7587 28
6070 7586 7588 28
6071 7586 7589 28
6072 7586 7590 28
6073 7591 7592 28
6074 7591 7593 28
6075 7591 7594 28
6076 7591 7595 28
6077 7596 7597 28
6078 7596 7598 28
6079 7596 7599 28
6080 7596 7600 28
6081 7601 7602 28
6082 7601 7603 28
6083 7601 7604 28
6084 7601 7605 28
6085 7606 7607 28
6086 7606 7608 28
6087 7606 7609 28
6088 7606 7610 28
6089 7611 7612 28
6090 7611 7613 28
6091 7611 7614 28
6092 7611 7615 28
6093 7616 7617 28
6094 7616 7618 28
6095 7616 7619 28
6096 7616 7620 28
6097 7621 7622 28
6098 7621 7623 28
6099 7621 7624 28
6100 7621 7625 28
6101 7626 7627 28
6102 7626 7628 28
6103 7626 7629 28
6104 7626 7630 28
6105 7631 7632 28
6106 7631 7633 28
6107 7631 7634 28
6108 7631 7635 28
6109 7636 7637 28
6110 7636 7638 28
6111 7636 7639 28
6112 7636 7640 28
6113 7641 7642 28
6114 7641 7643 28
6115 7641 7644 28
6116 7641 7645 28
6117 7646 7647 28
6118 7646 7648 28
6119 7646 7649 28
6120 7646 7650 28
6121 7651 7652 28
6122 7651 7653 28
6123 7651 7654 28
6124 7651 7655 28
6125 7656 7657 28
6126 7656 7658 28
6127 7656 7659 28
6128 7656 7660 28
6129 7661 7662 28
6130 7661 7663 28
6131 7661 7664 28
6132 7661 7665 28
6133 7666 7667 28
6134 7666 7668 28
6135 7666 7669 28
6136 7666 7670 28
6137 7671 7672 28
6138 7671 7673 28
6139 7671 7674 28
6140 7671 7675 28
6141 7676 7677 28
6142 7676 7678 28
6143 7676 7679 28
6144 7676 7680 28
6145 7681 7682 28
6146 7681 7683 28
6147 7681 7684 28
6148 7681 7685 28
6149 7686 7687 28
6150 7686 7688 28
6151 7686 7689 28
6152 7686 7690 28
6153 7691 7692 28
6154 7691 7693 28
6155 7691 7694 28
6156 7691 7695 28
6157 7696 7697 28
6158 7696 7698 28
6159 7696 7699 28
6160 7696 7700 28
6161 7701 7702 28
6162 7701 7703 28
6163 7701 7704 28
6164 7701 7705 28
6165 7706 7707 28
6166 7706 7708 28
6167 7706 7709 28
6168 7706 7710 28
6169 7711 7712 28
6170 7711 7713 28
6171 7711 7714 28
6172 7711 7715 28
6173 7716 7717 28
6174 7716 7718 28
6175 7716 7719 28
6176 7716 7720 28
6177 7721 7722 28
6178 7721 7723 28
6179 7721 7724 28
6180 7721 7725 28
6181 7726 7727 28
6182 7726 7728 28
6183 7726 7729 28
6184 7726 7730 28
6185 7731 7732 28
6186 7731 7733 28
6187 7731 7734 28
6188 7731 7735 28
6189 7736 7737 28
6190 7736 7738 28
6191 7736 7739 28
6192 7736 7740 28
6193 7741 7742 28
6194 7741 7743 28
6195 7741 7744 28
6196 7741 7745 28
6197 7746 7747 28
6198 7746 7748 28
6199 7746 7749 28
6200 7746 7750 28
6201 7751 7752 28
6202 7751 7753 28
6203 7751 7754 28
6204 7751 7755 28
6205 7756 7757 28
6206 7756 7758 28
6207 7756 7759 28
6208 7756 7760 28
6209 7761 7762 28
6210 7761 7763 28
6211 7761 7764 28
6212 7761 7765 28
6213 7766 7767 28
6214 7766 7768 28
6215 7766 7769 28
6216 7766 7770 28
6217 7771 7772 28
6218 7771 7773 28
6219 7771 7774 28
6220 7771 7775 28
6221 7776 7777 28
6222 7776 7778 28
6223 7776 7779 28
6224 7776 7780 28
6225 7781 7782 28
6226 7781 7783 28
6227 7781 7784 28
6228 7781 7785 28
6229 7786 7787 28
6230 7786 7788 28
6231 7786 7789 28
6232 7786 7790 28
6233 7791 7792 28
6234 7791 7793 28
6235 7791 7794 28
6236 7791 7795 28
6237 7796 7797 28
6238 7796 7798 28
6239 7796 7799 28
6240 7796 7800 28
6241 7801 7802 28
6242 7801 7803 28
6243 7801 7804 28
6244 7801 7805 28
6245 7806 7807 28
6246 7806 7808 28
6247 7806 7809 28
6248 7806 7810 28
6249 7811 7812 28
6250 7811 7813 28
6251 7811 7814 28
6252 7811 7815 28
6253 7816 7817 28
6254 7816 7818 28
6255 7816 7819 28
6256 7816 7820 28
6257 7821 7822 28
6258 7821 7823 28
6259 7821 7824 28
6260 7821 7825 28
6261 7826 7827 28
6262 7826 7828 28
6263 7826 7829 28
6264 7826 7830 28
6265 7831 7832 28
6266 7831 7833 28
6267 7831 7834 28
6268 7831 7835 28
6269 7836 7837 28
6270 7836 7838 28
6271 7836 7839 28
6272 7836 7840 28
6273 7841 7842 28
6274 7841 7843 28
6275 7841 7844 28
6276 7841 7845 28
6277 7846 7847 28
6278 7846 7848 28
6279 7846 7849 28
6280 7846 7850 28
6281 7851 7852 28
6282 7851 7853 28
6283 7851 7854 28
6284 7851 7855 28
6285 7856 7857 28
6286 7856 7858 28
6287 7856 7859 28
6288 7856 7860 28
6289 7861 7862 28
6290 7861 7863 28
6291 7861 7864 28
6292 7861 7865 28
6293 7866 7867 28
6294 7866 7868 28
6295 7866 7869 28
6296 7866 7870 28
6297 7871 7872 28
6298 7871 7873 28
6299 7871 7874 28
6300 7871 7875 28
6301 7876 7877 28
6302 7876 7878 28
6303 7876 7879 28
6304 7876 7880 28
6305 7881 7882 28
6306 7881 7883 28
6307 7881 7884 28
6308 7881 7885 28
6309 7886 7887 28
6310 7886 7888 28
6311 7886 7889 28
6312 7886 7890 28
6313 7891 7892 28
6314 7891 7893 28
6315 7891 7894 28
6316 7891 7895 28
6317 7896 7897 28
6318 7896 7898 28
6319 7896 7899 28
6320 7896 7900 28
6321 7901 7902 28
6322 7901 7903 28
6323 7901 7904 28
6324 7901 7905 28
6325 7906 7907 28
6326 7906 7908 28
6327 7906 7909 28
6328 7906 7910 28
6329 7911 7912 28
6330 7911 7913 28
6331 7911 7914 28
6332 7911 7915 28
6333 7916 7917 28
6334 7916 7918 28
6335 7916 7919 28
6336 7916 7920 28
6337 7921 7922 28
6338 7921 7923 28
6339 7921 7924 28
6340 7921 7925 28
6341 7926 7927 28
6342 7926 7928 28
6343 7926 7929 28
6344 7926 7930 28
6345 7931 7932 28
6346 7931 7933 28
6347 7931 7934 28
6348 7931 7935 28
6349 7936 7937 28
6350 7936 7938 28
6351 7936 7939 28
6352 7936 7940 28
6353 7941 7942 28
6354 7941 7943 28
6355 7941 7944 28
6356 7941 7945 28
6357 7946 7947 28
6358 7946 7948 28
6359 7946 7949 28
6360 7946 7950 28
6361 7951 7952 28
6362 7951 7953 28
6363 7951 7954 28
6364 7951 7955 28
6365 7956 7957 28
6366 7956 7958 28
6367 7956 7959 28
6368 7956 7960 28
6369 7961 7962 28
6370 7961 7963 28
6371 7961 7964 28
6372 7961 7965 28
6373 7966 7967 28
6374 7966 7968 28
6375 7966 7969 28
6376 7966 7970 28
6377 7971 7972 28
6378 7971 7973 28
6379 7971 7974 28
6380 7971 7975 28
6381 7976 7977 28
6382 7976 7978 28
6383 7976 7979 28
6384 7976 7980 28
6385 7981 7982 28
6386 7981 7983 28
6387 7981 7984 28
6388 7981 7985 28
6389 7986 7987 28
6390 7986 7988 28
6391 7986 7989 28
6392 7986 7990 28
6393 7991 7992 28
6394 7991 7993 28
6395 7991 7994 28
6396 7991 7995 28
6397 7996 7997 28
6398 7996 7998 28
6399 7996 7999 28
6400 7996 8000 28
6401 8001 8002 28
6402 8001 8003 28
6403 8001 8004 28
6404 8001 8005 28
6405 8006 8007 28
6406 8006 8008 28
6407 8006 8009 28
6408 8006 8010 28
6409 8011 8012 28
6410 8011 8013 28
6411 8011 8014 28
6412 8011 8015 28
6413 8016 8017 28
6414 8016 8018 28
6415 8016 8019 28
6416 8016 8020 28
6417 8021 8022 28
6418 8021 8023 28
6419 8021 8024 28
6420 8021 8025 28
6421 8026 8027 28
6422 8026 8028 28
6423 8026 8029 28
6424 8026 8030 28
6425 8031 8032 28
6426 8031 8033 28
6427 8031 8034 28
6428 8031 8035 28
6429 8036 8037 28
6430 8036 8038 28
6431 8036 8039 28
6432 8036 8040 28
6433 8041 8042 28
6434 8041 8043 28
6435 8041 8044 28
6436 8041 8045 28
6437 8046 8047 28
6438 8046 8048 28
6439 8046 8049 28
6440 8046 8050 28
6441 8051 8052 28
6442 8051 8053 28
6443 8051 8054 28
6444 8051 8055 28
6445 8056 8057 28
6446 8056 8058 28
6447 8056 8059 28
6448 8056 8060 28
6449 8061 8062 28
6450 8061 8063 28
6451 8061 8064 28
6452 8061 8065 28
6453 8066 8067 28
6454 8066 8068 28
6455 8066 8069 28
6456 8066 8070 28
6457 8071 8072 28
6458 8071 8073 28
6459 8071 8074 28
6460 8071 8075 28
6461 8076 8077 28
6462 8076 8078 28
6463 8076 8079 28
6464 8076 8080 28
6465 8081 8082 28
6466 8081 8083 28
6467 8081 8084 28
6468 8081 8085 28
6469 8086 8087 28
6470 8086 8088 28
6471 8086 8089 28
6472 8086 8090 28
6473 8091 8092 28
6474 8091 8093 28
6475 8091 8094 28
6476 8091 8095 28
6477 8096 8097 28
6478 8096 8098 28
6479 8096 8099 28
6480 8096 8100 28
6481 8101 8102 28
6482 8101 8103 28
6483 8101 8104 28
6484 8101 8105 28
6485 8106 8107 28
6486 8106 8108 28
6487 8106 8109 28
6488 8106 8110 28
6489 8111 8112 28
6490 8111 8113 28
6491 8111 8114 28
6492 8111 8115 28
6493 8116 8117 28
6494 8116 8118 28
6495 8116 8119 28
6496 8116 8120 28
6497 8121 8122 28
6498 8121 8123 28
6499 8121 8124 28
6500 8121 8125 28
6501 8126 8127 28
6502 8126 8128 28
6503 8126 8129 28
6504 8126 8130 28
6505 8131 8132 28
6506 8131 8133 28
6507 8131 8134 28
6508 8131 8135 28
6509 8136 8137 28
6510 8136 8138 28
6511 8136 8139 28
6512 8136 8140 28
6513 8141 8142 28
6514 8141 8143 28
6515 8141 8144 28
6516 8141 8145 28
6517 8146 8147 28
6518 8146 8148 28
6519 8146 8149 28
6520 8146 8150 28
6521 8151 8152 28
6522 8151 8153 28
6523 8151 8154 28
6524 8151 8155 28
6525 8156 8157 28
6526 8156 8158 28
6527 8156 8159 28
6528 8156 8160 28
6529 8161 8162 28
6530 8161 8163 28
6531 8161 8164 28
6532 8161 8165 28
6533 8166 8167 28
6534 8166 8168 28
6535 8166 8169 28
6536 8166 8170 28
6537 8171 8172 28
6538 8171 8173 28
6539 8171 8174 28
6540 8171 8175 28
6541 8176 8177 28
6542 8176 8178 28
6543 8176 8179 28
6544 8176 8180 28
6545 8181 8182 28
6546 8181 8183 28
6547 8181 8184 28
6548 8181 8185 28
6549 8186 8187 28
6550 8186 8188 28
6551 8186 8189 28
6552 8186 8190 28
6553 8191 8192 28
6554 8191 8193 28
6555 8191 8194 28
6556 8191 8195 28
6557 8196 8197 28
6558 8196 8198 28
6559 8196 8199 28
6560 8196 8200 28
6561 8201 8202 28
6562 8201 8203 28
6563 8201 8204 28
6564 8201 8205 28
6565 8206 8207 28
6566 8206 8208 28
6567 8206 8209 28
6568 8206 8210 28
6569 8211 8212 28
6570 8211 8213 28
6571 8211 8214 28
6572 8211 8215 28
6573 8216 8217 28
6574 8216 8218 28
6575 8216 8219 28
6576 8216 8220 28
6577 8221 8222 28
6578 8221 8223 28
6579 8221 8224 28
6580 8221 8225 28
6581 8226 8227 28
6582 8226 8228 28
6583 8226 8229 28
6584 8226 8230 28
6585 8231 8232 28
6586 8231 8233 28
6587 8231 8234 28
6588 8231 8235 28
6589 8236 8237 28
6590 8236 8238 28
6591 8236 8239 28
6592 8236 8240 28
6593 8241 8242 28
6594 8241 8243 28
6595 8241 8244 28
6596 8241 8245 28
6597 8246 8247 28
6598 8246 8248 28
6599 8246 8249 28
6600 8246 8250 28
6601 8251 8252 28
6602 8251 8253 28
6603 8251 8254 28
6604 8251 8255 28
6605 8256 8257 28
6606 8256 8258 28
6607 8256 8259 28
6608 8256 8260 28
6609 8261 8262 28
6610 8261 8263 28
6611 8261 8264 28
6612 8261 8265 28
6613 8266 8267 28
6614 8266 8268 28
6615 8266 8269 28
6616 8266 8270 28
6617 8271 8272 28
6618 8271 8273 28
6619 8271 8274 28
6620 8271 8275 28
6621 8276 8277 28
6622 8276 8278 28
6623 8276 8279 28
6624 8276 8280 28
6625 8281 8282 28
6626 8281 8283 28
6627 8281 8284 28
6628 8281 8285 28
6629 8286 8287 28
6630 8286 8288 28
6631 8286 8289 28
6632 8286 8290 28
6633 8291 8292 28
6634 8291 8293 28
6635 8291 8294 28
6636 8291 8295 28
6637 8296 8297 28
6638 8296 8298 28
6639 8296 8299 28
6640 8296 8300 28
6641 8301 8302 28
6642 8301 8303 28
6643 8301 8304 28
6644 8301 8305 28
6645 8306 8307 28
6646 8306 8308 28
6647 8306 8309 28
6648 8306 8310 28
6649 8311 8312 28
6650 8311 8313 28
6651 8311 8314 28
6652 8311 8315 28
6653 8316 8317 28
6654 8316 8318 28
6655 8316 8319 28
6656 8316 8320 28
6657 8321 8322 28
6658 8321 8323 28
6659 8321 8324 28
6660 8321 8325 28
6661 8326 8327 28
6662 8326 8328 28
6663 8326 8329 28
6664 8326 8330 28
6665 8331 8332 28
6666 8331 8333 28
6667 8331 8334 28
6668 8331 8335 28
6669 8336 8337 28
6670 8336 8338 28
6671 8336 8339 28
6672 8336 8340 28
6673 8341 8342 28
6674 8341 8343 28
6675 8341 8344 28
6676 8341 8345 28
6677 8346 8347 28
6678 8346 8348 28
6679 8346 8349 28
6680 8346 8350 28
6681 8351 8352 28
6682 8351 8353 28
6683 8351 8354 28
6684 8351 8355 28
6685 8356 8357 28
6686 8356 8358 28
6687 8356 8359 28
6688 8356 8360 28
6689 8361 8362 28
6690 8361 8363 28
6691 8361 8364 28
6692 8361 8365 28
6693 8366 8367 28
6694 8366 8368 28
6695 8366 8369 28
6696 8366 8370 28
6697 8371 8372 28
6698 8371 8373 28
6699 8371 8374 28
6700 8371 8375 28
6701 8376 8377 28
6702 8376 8378 28
6703 8376 8379 28
6704 8376 8380 28
6705 8381 8382 28
6706 8381 8383 28
6707 8381 8384 28
6708 8381 8385 28
6709 8386 8387 28
6710 8386 8388 28
6711 8386 8389 28
6712 8386 8390 28
6713 8391 8392 28
6714 8391 8393 28
6715 8391 8394 28
6716 8391 8395 28
6717 8396 8397 28
6718 8396 8398 28
6719 8396 8399 28
6720 8396 8400 28
6721 8401 8402 28
6722 8401 8403 28
6723 8401 8404 28
6724 8401 8405 28
6725 8406 8407 28
6726 8406 8408 28
6727 8406 8409 28
6728 8406 8410 28
6729 8411 8412 28
6730 8411 8413 28
6731 8411 8414 28
6732 8411 8415 28
6733 8416 8417 28
6734 8416 8418 28
6735 8416 8419 28
6736 8416 8420 28
6737 8421 8422 28
6738 8421 8423 28
6739 8421 8424 28
6740 8421 8425 28
6741 8426 8427 28
6742 8426 8428 28
6743 8426 8429 28
6744 8426 8430 28
6745 8431 8432 28
6746 8431 8433 28
6747 8431 8434 28
6748 8431 8435 28
6749 8436 8437 28
6750 8436 8438 28
6751 8436 8439 28
6752 8436 8440 28
6753 8441 8442 28
6754 8441 8443 28
6755 8441 8444 28
6756 8441 8445 28
6757 8446 8447 28
6758 8446 8448 28
6759 8446 8449 28
6760 8446 8450 28
6761 8451 8452 28
6762 8451 8453 28
6763 8451 8454 28
6764 8451 8455 28
6765 8456 8457 28
6766 8456 8458 28
6767 8456 8459 28
6768 8456 8460 28
6769 8461 8462 28
6770 8461 8463 28
6771 8461 8464 28
6772 8461 8465 28
6773 8466 8467 28
6774 8466 8468 28
6775 8466 8469 28
6776 8466 8470 28
6777 8471 8472 28
6778 8471 8473 28
6779 8471 8474 28
6780 8471 8475 28
6781 8476 8477 28
6782 8476 8478 28
6783 8476 8479 28
6784 8476 8480 28
6785 8481 8482 28
6786 8481 8483 28
6787 8481 8484 28
6788 8481 8485 28
6789 8486 8487 28
6790 8486 8488 28
6791 8486 8489 28
6792 8486 8490 28
6793 8491 8492 28
6794 8491 8493 28
6795 8491 8494 28
6796 8491 8495 28
6797 8496 8497 28
6798 8496 8498 28
6799 8496 8499 28
6800 8496 8500 28
6801 8501 8502 28
6802 8501 8503 28
6803 8501 8504 28
6804 8501 8505 28
6805 8506 8507 28
6806 8506 8508 28
6807 8506 8509 28
6808 8506 8510 28
6809 8511 8512 28
6810 8511 8513 28
6811 8511 8514 28
6812 8511 8515 28
6813 8516 8517 28
6814 8516 8518 28
6815 8516 8519 28
6816 8516 8520 28
6817 8521 8522 28
6818 8521 8523 28
6819 8521 8524 28
6820 8521 8525 28
6821 8526 8527 28
6822 8526 8528 28
6823 8526 8529 28
6824 8526 8530 28
6825 8531 8532 28
6826 8531 8533 28
6827 8531 8534 28
6828 8531 8535 28
6829 8536 8537 28
6830 8536 8538 28
6831 8536 8539 28
6832 8536 8540 28
6833 8541 8542 28
6834 8541 8543 28
6835 8541 8544 28
6836 8541 8545 28
6837 8546 8547 28
6838 8546 8548 28
6839 8546 8549 28
6840 8546 8550 28
6841 8551 8552 28
6842 8551 8553 28
6843 8551 8554 28
6844 8551 8555 28
6845 8556 8557 28
6846 8556 8558 28
6847 8556 8559 28
6848 8556 8560 28
6849 8561 8562 28
6850 8561 8563 28
6851 8561 8564 28
6852 8561 8565 28
6853 8566 8567 28
6854 8566 8568 28
6855 8566 8569 28
6856 8566 8570 28
6857 8571 8572 28
6858 8571 8573 28
6859 8571 8574 28
6860 8571 8575 28
6861 8576 8577 28
6862 8576 8578 28
6863 8576 8579 28
6864 8576 8580 28
6865 8581 8582 28
6866 8581 8583 28
6867 8581 8584 28
6868 8581 8585 28
6869 8586 8587 28
6870 8586 8588 28
6871 8586 8589 28
6872 8586 8590 28
6873 8591 8592 28
6874 8591 8593 28
6875 8591 8594 28
6876 8591 8595 28
6877 8596 8597 28
6878 8596 8598 28
6879 8596 8599 28
6880 8596 8600 28
6881 8601 8602 28
6882 8601 8603 28
6883 8601 8604 28
6884 8601 8605 28
6885 8606 8607 28
6886 8606 8608 28
6887 8606 8609 28
6888 8606 8610 28
6889 8611 8612 28
6890 8611 8613 28
6891 8611 8614 28
6892 8611 8615 28
6893 8616 8617 28
6894 8616 8618 28
6895 8616 8619 28
6896 8616 8620 28
6897 8621 8622 28
6898 8621 8623 28
6899 8621 8624 28
6900 8621 8625 28
6901 8626 8627 28
6902 8626 8628 28
6903 8626 8629 28
6904 8626 8630 28
6905 8631 8632 28
6906 8631 8633 28
6907 8631 8634 28
6908 8631 8635 28
6909 8636 8637 28
6910 8636 8638 28
6911 8636 8639 28
6912 8636 8640 28
6913 8641 8642 28
6914 8641 8643 28
6915 8641 8644 28
6916 8641 8645 28
6917 8646 8647 28
6918 8646 8648 28
6919 8646 8649 28
6920 8646 8650 28
6921 8651 8652 28
6922 8651 8653 28
6923 8651 8654 28
6924 8651 8655 28
6925 8656 8657 28
6926 8656 8658 28
6927 8656 8659 28
6928 8656 8660 28
6929 8661 8662 28
6930 8661 8663 28
6931 8661 8664 28
6932 8661 8665 28
6933 8666 8667 28
6934 8666 8668 28
6935 8666 8669 28
6936 8666 8670 28
6937 8671 8672 28
6938 8671 8673 28
6939 8671 8674 28
6940 8671 8675 28
6941 8676 8677 28
6942 8676 8678 28
6943 8676 8679 28
6944 8676 8680 28
6945 8681 8682 28
6946 8681 8683 28
6947 8681 8684 28
6948 8681 8685 28
6949 8686 8687 28
6950 8686 8688 28
6951 8686 8689 28
6952 8686 8690 28
6953 8691 8692 28
6954 8691 8693 28
6955 8691 8694 28
6956 8691 8695 28
6957 8696 8697 28
6958 8696 8698 28
6959 8696 8699 28
6960 8696 8700 28
6961 8701 8702 28
6962 8701 8703 28
6963 8701 8704 28
6964 8701 8705 28
6965 8706 8707 28
6966 8706 8708 28
6967 8706 8709 28
6968 8706 8710 28
6969 8711 8712 28
6970 8711 8713 28
6971 8711 8714 28
6972 8711 8715 28
6973 8716 8717 28
6974 8716 8718 28
6975 8716 8719 28
6976 8716 8720 28
6977 8721 8722 28
6978 8721 8723 28
6979 8721 8724 28
6980 8721 8725 28
6981 8726 8727 28
6982 8726 8728 28
6983 8726 8729 28
6984 8726 8730 28
6985 8731 8732 28
6986 8731 8733 28
6987 8731 8734 28
6988 8731 8735 28
6989 8736 8737 28
6990 8736 8738 28
6991 8736 8739 28
6992 8736 8740 28
6993 8741 8742 28
6994 8741 8743 28
6995 8741 8744 28
6996 8741 8745 28
6997 8746 8747 28
6998 8746 8748 28
6999 8746 8749 28
7000 8746 8750 28
7001 8751 8752 28
7002 8751 8753 28
7003 8751 8754 28
7004 8751 8755 28
7005 8756 8757 28
7006 8756 8758 28
7007 8756 8759 28
7008 8756 8760 28
7009 8761 8762 28
7010 8761 8763 28
7011 8761 8764 28
7012 8761 8765 28
7013 8766 8767 28
7014 8766 8768 28
7015 8766 8769 28
7016 8766 8770 28
7017 8771 8772 28
7018 8771 8773 28
7019 8771 8774 28
7020 8771 8775 28
7021 8776 8777 28
7022 8776 8778 28
7023 8776 8779 28
7024 8776 8780 28
7025 8781 8782 28
7026 8781 8783 28
7027 8781 8784 28
7028 8781 8785 28
7029 8786 8787 28
7030 8786 8788 28
7031 8786 8789 28
7032 8786 8790 28
7033 8791 8792 28
7034 8791 8793 28
7035 8791 8794 28
7036 8791 8795 28
7037 8796 8797 28
7038 8796 8798 28
7039 8796 8799 28
7040 8796 8800 28
7041 8801 8802 28
7042 8801 8803 28
7043 8801 8804 28
7044 8801 8805 28
7045 8806 8807 28
7046 8806 8808 28
7047 8806 8809 28
7048 8806 8810 28
7049 8811 8812 28
7050 8811 8813 28
7051 8811 8814 28
7052 8811 8815 28
7053 8816 8817 28
7054 8816 8818 28
7055 8816 8819 28
7056 8816 8820 28
7057 8821 8822 28
7058 8821 8823 28
7059 8821 8824 28
7060 8821 8825 28
7061 8826 8827 28
7062 8826 8828 28
7063 8826 8829 28
7064 8826 8830 28
7065 8831 8832 28
7066 8831 8833 28
7067 8831 8834 28
7068 8831 8835 28
7069 8836 8837 28
7070 8836 8838 28
7071 8836 8839 28
7072 8836 8840 28
7073 8841 8842 28
7074 8841 8843 28
7075 8841 8844 28
7076 8841 8845 28
7077 8846 8847 28
7078 8846 8848 28
7079 8846 8849 28
7080 8846 8850 28
7081 8851 8852 28
7082 8851 8853 28
7083 8851 8854 28
7084 8851 8855 28
7085 8856 8857 28
7086 8856 8858 28
7087 8856 8859 28
7088 8856 8860 28
7089 8861 8862 28
7090 8861 8863 28
7091 8861 8864 28
7092 8861 8865 28
7093 8866 8867 28
7094 8866 8868 28
7095 8866 8869 28
7096 8866 8870 28
7097 8871 8872 28
7098 8871 8873 28
7099 8871 8874 28
7100 8871 8875 28
7101 8876 8877 28
7102 8876 8878 28
7103 8876 8879 28
7104 8876 8880 28
7105 8881 8882 28
7106 8881 8883 28
7107 8881 8884 28
7108 8881 8885 28
7109 8886 8887 28
7110 8886 8888 28
7111 8886 8889 28
7112 8886 8890 28
7113 8891 8892 28
7114 8891 8893 28
7115 8891 8894 28
7116 8891 8895 28
7117 8896 8897 28
7118 8896 8898 28
7119 8896 8899 28
7120 8896 8900 28
7121 8901 8902 28
7122 8901 8903 28
7123 8901 8904 28
7124 8901 8905 28
7125 8906 8907 28
7126 8906 8908 28
7127 8906 8909 28
7128 8906 8910 28
7129 8911 8912 28
7130 8911 8913 28
7131 8911 8914 28
7132 8911 8915 28
7133 8916 8917 28
7134 8916 8918 28
7135 8916 8919 28
7136 8916 8920 28
7137 8921 8922 28
7138 8921 8923 28
7139 8921 8924 28
7140 8921 8925 28
7141 8926 8927 28
7142 8926 8928 28
7143 8926 8929 28
7144 8926 8930 28
7145 8931 8932 28
7146 8931 8933 28
7147 8931 8934 28
7148 8931 8935 28
7149 8936 8937 28
7150 8936 8938 28
7151 8936 8939 28
7152 8936 8940 28
7153 8941 8942 28
7154 8941 8943 28
7155 8941 8944 28
7156 8941 8945 28
7157 8946 8947 28
7158 8946 8948 28
7159 8946 8949 28
7160 8946 8950 28
7161 8951 8952 28
7162 8951 8953 28
7163 8951 8954 28
7164 8951 8955 28
7165 8956 8957 28
7166 8956 8958 28
7167 8956 8959 28
7168 8956 8960 28
7169 8961 8962 28
7170 8961 8963 28
7171 8961 8964 28
7172 8961 8965 28
7173 8966 8967 28
7174 8966 8968 28
7175 8966 8969 28
7176 8966 8970 28
7177 8971 8972 28
7178 8971 8973 28
7179 8971 8974 28
7180 8971 8975 28
7181 8976 8977 28
7182 8976 8978 28
7183 8976 8979 28
7184 8976 8980 28
7185 8981 8982 28
7186 8981 8983 28
7187 8981 8984 28
7188 8981 8985 28
7189 8986 8987 28
7190 8986 8988 28
7191 8986 8989 28
7192 8986 8990 28
7193 8991 8992 28
7194 8991 8993 28
7195 8991 8994 28
7196 8991 8995 28
7197 8996 8997 28
7198 8996 8998 28
7199 8996 8999 28
7200 8996 9000 28
7201 9001 9002 28
7202 9001 9003 28
7203 9001 9004 28
7204 9001 9005 28
7205 9006 9007 28
7206 9006 9008 28
7207 9006 9009 28
7208 9006 9010 28
7209 9011 9012 28
7210 9011 9013 28
7211 9011 9014 28
7212 9011 9015 28
7213 9016 9017 28
7214 9016 9018 28
7215 9016 9019 28
7216 9016 9020 28
7217 9021 9022 28
7218 9021 9023 28
7219 9021 9024 28
7220 9021 9025 28
7221 9026 9027 28
7222 9026 9028 28
7223 9026 9029 28
7224 9026 9030 28
7225 9031 9032 28
7226 9031 9033 28
7227 9031 9034 28
7228 9031 9035 28
7229 9036 9037 28
7230 9036 9038 28
7231 9036 9039 28
7232 9036 9040 28
7233 9041 9042 28
7234 9041 9043 28
7235 9041 9044 28
7236 9041 9045 28
7237 9046 9047 28
7238 9046 9048 28
7239 9046 9049 28
7240 9046 9050 28
7241 9051 9052 28
7242 9051 9053 28
7243 9051 9054 28
7244 9051 9055 28
7245 9056 9057 28
7246 9056 9058 28
7247 9056 9059 28
7248 9056 9060 28
7249 9061 9062 28
7250 9061 9063 28
7251 9061 9064 28
7252 9061 9065 28
7253 9066 9067 28
7254 9066 9068 28
7255 9066 9069 28
7256 9066 9070 28
7257 9071 9072 28
7258 9071 9073 28
7259 9071 9074 28
7260 9071 9075 28
7261 9076 9077 28
7262 9076 9078 28
7263 9076 9079 28
7264 9076 9080 28
7265 9081 9082 28
7266 9081 9083 28
7267 9081 9084 28
7268 9081 9085 28
7269 9086 9087 28
7270 9086 9088 28
7271 9086 9089 28
7272 9086 9090 28
7273 9091 9092 28
7274 9091 9093 28
7275 9091 9094 28
7276 9091 9095 28
7277 9096 9097 28
7278 9096 9098 28
7279 9096 9099 28
7280 9096 9100 28
7281 9101 9102 28
7282 9101 9103 28
7283 9101 9104 28
7284 9101 9105 28
7285 9106 9107 28
7286 9106 9108 28
7287 9106 9109 28
7288 9106 9110 28
7289 9111 9112 28
7290 9111 9113 28
7291 9111 9114 28
7292 9111 9115 28
7293 9116 9117 28
7294 9116 9118 28
7295 9116 9119 28
7296 9116 9120 28
7297 9121 9122 28
7298 9121 9123 28
7299 9121 9124 28
7300 9121 9125 28
7301 9126 9127 28
7302 9126 9128 28
7303 9126 9129 28
7304 9126 9130 28
7305 9131 9132 28
7306 9131 9133 28
7307 9131 9134 28
7308 9131 9135 28
7309 9136 9137 28
7310 9136 9138 28
7311 9136 9139 28
7312 9136 9140 28
7313 9141 9142 28
7314 9141 9143 28
7315 9141 9144 28
7316 9141 9145 28
7317 9146 9147 28
7318 9146 9148 28
7319 9146 9149 28
7320 9146 9150 28
7321 9151 9152 28
7322 9151 9153 28
7323 9151 9154 28
7324 9151 9155 28
7325 9156 9157 28
7326 9156 9158 28
7327 9156 9159 28
7328 9156 9160 28
7329 9161 9162 28
7330 9161 9163 28
7331 9161 9164 28
7332 9161 9165 28
7333 9166 9167 28
7334 9166 9168 28
7335 9166 9169 28
7336 9166 9170 28
7337 9171 9172 28
7338 9171 9173 28
7339 9171 9174 28
7340 9171 9175 28
7341 9176 9177 28
7342 9176 9178 28
7343 9176 9179 28
7344 9176 9180 28
7345 9181 9182 28
7346 9181 9183 28
7347 9181 9184 28
7348 9181 9185 28
7349 9186 9187 28
7350 9186 9188 28
7351 9186 9189 28
7352 9186 9190 28
7353 9191 9192 28
7354 9191 9193 28
7355 9191 9194 28
7356 9191 9195 28
7357 9196 9197 28
7358 9196 9198 28
7359 9196 9199 28
7360 9196 9200 28
7361 9201 9202 28
7362 9201 9203 28
7363 9201 9204 28
7364 9201 9205 28
7365 9206 9207 28
7366 9206 9208 28
7367 9206 9209 28
7368 9206 9210 28
7369 9211 9212 28
7370 9211 9213 28
7371 9211 9214 28
7372 9211 9215 28
7373 9216 9217 28
7374 9216 9218 28
7375 9216 9219 28
7376 9216 9220 28
7377 9221 9222 28
7378 9221 9223 28
7379 9221 9224 28
7380 9221 9225 28
7381 9226 9227 28
7382 9226 9228 28
7383 9226 9229 28
7384 9226 9230 28
7385 9231 9232 28
7386 9231 9233 28
7387 9231 9234 28
7388 9231 9235 28
7389 9236 9237 28
7390 9236 9238 28
7391 9236 9239 28
7392 9236 9240 28
7393 9241 9242 28
7394 9241 9243 28
7395 9241 9244 28
7396 9241 9245 28
7397 9246 9247 28
7398 9246 9248 28
7399 9246 9249 28
7400 9246 9250 28
7401 9251 9252 28
7402 9251 9253 28
7403 9251 9254 28
7404 9251 9255 28
7405 9256 9257 28
7406 9256 9258 28
7407 9256 9259 28
7408 9256 9260 28
7409 9261 9262 28
7410 9261 9263 28
7411 9261 9264 28
7412 9261 9265 28
7413 9266 9267 28
7414 9266 9268 28
7415 9266 9269 28
7416 9266 9270 28
7417 9271 9272 28
7418 9271 9273 28
7419 9271 9274 28
7420 9271 9275 28
7421 9276 9277 28
7422 9276 9278 28
7423 9276 9279 28
7424 9276 9280 28
7425 9281 9282 28
7426 9281 9283 28
7427 9281 9284 28
7428 9281 9285 28
7429 9286 9287 28
7430 9286 9288 28
7431 9286 9289 28
7432 9286 9290 28
7433 9291 9292 28
7434 9291 9293 28
7435 9291 9294 28
7436 9291 9295 28
7437 9296 9297 28
7438 9296 9298 28
7439 9296 9299 28
7440 9296 9300 28
7441 9301 9302 28
7442 9301 9303 28
7443 9301 9304 28
7444 9301 9305 28
7445 9306 9307 28
7446 9306 9308 28
7447 9306 9309 28
7448 9306 9310 28
7449 9311 9312 28
7450 9311 9313 28
7451 9311 9314 28
7452 9311 9315 28
7453 9316 9317 28
7454 9316 9318 28
7455 9316 9319 28
7456 9316 9320 28
7457 9321 9322 28
7458 9321 9323 28
7459 9321 9324 28
7460 9321 9325 28
7461 9326 9327 28
7462 9326 9328 28
7463 9326 9329 28
7464 9326 9330 28
7465 9331 9332 28
7466 9331 9333 28
7467 9331 9334 28
7468 9331 9335 28
7469 9336 9337 28
7470 9336 9338 28
7471 9336 9339 28
7472 9336 9340 28
7473 9341 9342 28
7474 9341 9343 28
7475 9341 9344 28
7476 9341 9345 28
7477 9346 9347 28
7478 9346 9348 28
7479 9346 9349 28
7480 9346 9350 28
7481 9351 9352 28
7482 9351 9353 28
7483 9351 9354 28
7484 9351 9355 28
7485 9356 9357 28
7486 9356 9358 28
7487 9356 9359 28
7488 9356 9360 28
7489 9361 9362 28
7490 9361 9363 28
7491 9361 9364 28
7492 9361 9365 28
7493 9366 9367 28
7494 9366 9368 28
7495 9366 9369 28
7496 9366 9370 28
7497 9371 9372 28
7498 9371 9373 28
7499 9371 9374 28
7500 9371 9375 28
7501 9376 9377 28
7502 9376 9378 28
7503 9376 9379 28
7504 9376 9380 28
7505 9381 9382 28
7506 9381 9383 28
7507 9381 9384 28
7508 9381 9385 28
7509 9386 9387 28
7510 9386 9388 28
7511 9386 9389 28
7512 9386 9390 28
7513 9391 9392 28
7514 9391 9393 28
7515 9391 9394 28
7516 9391 9395 28
7517 9396 9397 28
7518 9396 9398 28
7519 9396 9399 28
7520 9396 9400 28
7521 9401 9402 28
7522 9401 9403 28
7523 9401 9404 28
7524 9401 9405 28
7525 9406 9407 28
7526 9406 9408 28
7527 9406 9409 28
7528 9406 9410 28
7529 9411 9412 28
7530 9411 9413 28
7531 9411 9414 28
7532 9411 9415 28
7533 9416 9417 28
7534 9416 9418 28
7535 9416 9419 28
7536 9416 9420 28
7537 9421 9422 28
7538 9421 9423 28
7539 9421 9424 28
7540 9421 9425 28
7541 9426 9427 28
7542 9426 9428 28
7543 9426 9429 28
7544 9426 9430 28
7545 9431 9432 28
7546 9431 9433 28
7547 9431 9434 28
7548 9431 9435 28
7549 9436 9437 28
7550 9436 9438 28
7551 9436 9439 28
7552 9436 9440 28
7553 9441 9442 28
7554 9441 9443 28
7555 9441 9444 28
7556 9441 9445 28
7557 9446 9447 28
7558 9446 9448 28
7559 9446 9449 28
7560 9446 9450 28
7561 9451 9452 28
7562 9451 9453 28
7563 9451 9454 28
7564 9451 9455 28
7565 9456 9457 28
7566 9456 9458 28
7567 9456 9459 28
7568 9456 9460 28
7569 9461 9462 28
7570 9461 9463 28
7571 9461 9464 28
7572 9461 9465 28
7573 9466 9467 28
7574 9466 9468 28
7575 9466 9469 28
7576 9466 9470 28
7577 9471 9472 28
7578 9471 9473 28
7579 9471 9474 28
7580 9471 9475 28
7581 9476 9477 28
7582 9476 9478 28
7583 9476 9479 28
7584 9476 9480 28
7585 9481 9482 28
7586 9481 9483 28
7587 9481 9484 28
7588 9481 9485 28
7589 9486 9487 28
7590 9486 9488 28
7591 9486 9489 28
7592 9486 9490 28
7593 9491 9492 28
7594 9491 9493 28
7595 9491 9494 28
7596 9491 9495 28
7597 9496 9497 28
7598 9496 9498 28
7599 9496 9499 28
7600 9496 9500 28
7601 9501 9502 28
7602 9501 9503 28
7603 9501 9504 28
7604 9501 9505 28
7605 9506 9507 28
7606 9506 9508 28
7607 9506 9509 28
7608 9506 9510 28
7609 9511 9512 28
7610 9511 9513 28
7611 9511 9514 28
7612 9511 9515 28
7613 9516 9517 28
7614 9516 9518 28
7615 9516 9519 28
7616 9516 9520 28
7617 9521 9522 28
7618 9521 9523 28
7619 9521 9524 28
7620 9521 9525 28
7621 9526 9527 28
7622 9526 9528 28
7623 9526 9529 28
7624 9526 9530 28
7625 9531 9532 28
7626 9531 9533 28
7627 9531 9534 28
7628 9531 9535 28
7629 9536 9537 28
7630 9536 9538 28
7631 9536 9539 28
7632 9536 9540 28
7633 9541 9542 28
7634 9541 9543 28
7635 9541 9544 28
7636 9541 9545 28
7637 9546 9547 28
7638 9546 9548 28
7639 9546 9549 28
7640 9546 9550 28
7641 9551 9552 28
7642 9551 9553 28
7643 9551 9554 28
7644 9551 9555 28
7645 9556 9557 28
7646 9556 9558 28
7647 9556 9559 28
7648 9556 9560 28
7649 9561 9562 28
7650 9561 9563 28
7651 9561 9564 28
7652 9561 9565 28
7653 9566 9567 28
7654 9566 9568 28
7655 9566 9569 28
7656 9566 9570 28
7657 9571 9572 28
7658 9571 9573 28
7659 9571 9574 28
7660 9571 9575 28
7661 9576 9577 28
7662 9576 9578 28
7663 9576 9579 28
7664 9576 9580 28
7665 9581 9582 28
7666 9581 9583 28
7667 9581 9584 28
7668 9581 9585 28
7669 9586 9587 28
7670 9586 9588 28
7671 9586 9589 28
7672 9586 9590 28
7673 9591 9592 28
7674 9591 9593 28
7675 9591 9594 28
7676 9591 9595 28
7677 9596 9597 28
7678 9596 9598 28
7679 9596 9599 28
7680 9596 9600 28
7681 9601 9602 28
7682 9601 9603 28
7683 9601 9604 28
7684 9601 9605 28
7685 9606 9607 28
7686 9606 9608 28
7687 9606 9609 28
7688 9606 9610 28
7689 9611 9612 28
7690 9611 9613 28
7691 9611 9614 28
7692 9611 9615 28
7693 9616 9617 28
7694 9616 9618 28
7695 9616 9619 28
7696 9616 9620 28
7697 9621 9622 28
7698 9621 9623 28
7699 9621 9624 28
7700 9621 9625 28
7701 9626 9627 28
7702 9626 9628 28
7703 9626 9629 28
7704 9626 9630 28
7705 9631 9632 28
7706 9631 9633 28
7707 9631 9634 28
7708 9631 9635 28
7709 9636 9637 28
7710 9636 9638 28
7711 9636 9639 28
7712 9636 9640 28
7713 9641 9642 28
7714 9641 9643 28
7715 9641 9644 28
7716 9641 9645 28
7717 9646 9647 28
7718 9646 9648 28
7719 9646 9649 28
7720 9646 9650 28
7721 9651 9652 28
7722 9651 9653 28
7723 9651 9654 28
7724 9651 9655 28
7725 9656 9657 28
7726 9656 9658 28
7727 9656 9659 28
7728 9656 9660 28
7729 9661 9662 28
7730 9661 9663 28
7731 9661 9664 28
7732 9661 9665 28
7733 9666 9667 28
7734 9666 9668 28
7735 9666 9669 28
7736 9666 9670 28
7737 9671 9672 28
7738 9671 9673 28
7739 9671 9674 28
7740 9671 9675 28
7741 9676 9677 28
7742 9676 9678 28
7743 9676 9679 28
7744 9676 9680 28
7745 9681 9682 28
7746 9681 9683 28
7747 9681 9684 28
7748 9681 9685 28
7749 9686 9687 28
7750 9686 9688 28
7751 9686 9689 28
7752 9686 9690 28
7753 9691 9692 28
7754 9691 9693 28
7755 9691 9694 28
7756 9691 9695 28
7757 9696 9697 28
7758 9696 9698 28
7759 9696 9699 28
7760 9696 9700 28
7761 9701 9702 28
7762 9701 9703 28
7763 9701 9704 28
7764 9701 9705 28
7765 9706 9707 28
7766 9706 9708 28
7767 9706 9709 28
7768 9706 9710 28
7769 9711 9712 28
7770 9711 9713 28
7771 9711 9714 28
7772 9711 9715 28
7773 9716 9717 28
7774 9716 9718 28
7775 9716 9719 28
7776 9716 9720 28
7777 9721 9722 28
7778 9721 9723 28
7779 9721 9724 28
7780 9721 9725 28
7781 9726 9727 28
7782 9726 9728 28
7783 9726 9729 28
7784 9726 9730 28
7785 9731 9732 28
7786 9731 9733 28
7787 9731 9734 28
7788 9731 9735 28
7789 9736 9737 28
7790 9736 9738 28
7791 9736 9739 28
7792 9736 9740 28
7793 9741 9742 28
7794 9741 9743 28
7795 9741 9744 28
7796 9741 9745 28
7797 9746 9747 28
7798 9746 9748 28
7799 9746 9749 28
7800 9746 9750 28
7801 9751 9752 28
7802 9751 9753 28
7803 9751 9754 28
7804 9751 9755 28
7805 9756 9757 28
7806 9756 9758 28
7807 9756 9759 28
7808 9756 9760 28
7809 9761 9762 28
7810 9761 9763 28
7811 9761 9764 28
7812 9761 9765 28
7813 9766 9767 28
7814 9766 9768 28
7815 9766 9769 28
7816 9766 9770 28
7817 9771 9772 28
7818 9771 9773 28
7819 9771 9774 28
7820 9771 9775 28
7821 9776 9777 28
7822 9776 9778 28
7823 9776 9779 28
7824 9776 9780 28
7825 9781 9782 28
7826 9781 9783 28
7827 9781 9784 28
7828 9781 9785 28
7829 9786 9787 28
7830 9786 9788 28
7831 9786 9789 28
7832 9786 9790 28
7833 9791 9792 28
7834 9791 9793 28
7835 9791 9794 28
7836 9791 9795 28
7837 9796 9797 28
7838 9796 9798 28
7839 9796 9799 28
7840 9796 9800 28
7841 9801 9802 28
7842 9801 9803 28
7843 9801 9804 28
7844 9801 9805 28
7845 9806 9807 28
7846 9806 9808 28
7847 9806 9809 28
7848 9806 9810 28
7849 9811 9812 28
7850 9811 9813 28
7851 9811 9814 28
7852 9811 9815 28
7853 9816 9817 28
7854 9816 9818 28
7855 9816 9819 28
7856 9816 9820 28
7857 9821 9822 28
7858 9821 9823 28
7859 9821 9824 28
7860 9821 9825 28
7861 9826 9827 28
7862 9826 9828 28
7863 9826 9829 28
7864 9826 9830 28
7865 9831 9832 28
7866 9831 9833 28
7867 9831 9834 28
7868 9831 9835 28
7869 9836 9837 28
7870 9836 9838 28
7871 9836 9839 28
7872 9836 9840 28
7873 9841 9842 28
7874 9841 9843 28
7875 9841 9844 28
7876 9841 9845 28
7877 9846 9847 28
7878 9846 9848 28
7879 9846 9849 28
7880 9846 9850 28
7881 9851 9852 28
7882 9851 9853 28
7883 9851 9854 28
7884 9851 9855 28
7885 9856 9857 28
7886 9856 9858 28
7887 9856 9859 28
7888 9856 9860 28
7889 9861 9862 28
7890 9861 9863 28
7891 9861 9864 28
7892 9861 9865 28
7893 9866 9867 28
7894 9866 9868 28
7895 9866 9869 28
7896 9866 9870 28
7897 9871 9872 28
7898 9871 9873 28
7899 9871 9874 28
7900 9871 9875 28
7901 9876 9877 28
7902 9876 9878 28
7903 9876 9879 28
7904 9876 9880 28
7905 9881 9882 28
7906 9881 9883 28
7907 9881 9884 28
7908 9881 9885 28
7909 9886 9887 28
7910 9886 9888 28
7911 9886 9889 28
7912 9886 9890 28
7913 9891 9892 28
7914 9891 9893 28
7915 9891 9894 28
7916 9891 9895 28
7917 9896 9897 28
7918 9896 9898 28
7919 9896 9899 28
7920 9896 9900 28
7921 9901 9902 28
7922 9901 9903 28
7923 9901 9904 28
7924 9901 9905 28
7925 9906 9907 28
7926 9906 9908 28
7927 9906 9909 28
7928 9906 9910 28
7929 9911 9912 28
7930 9911 9913 28
7931 9911 9914 28
7932 9911 9915 28
7933 9916 9917 28
7934 9916 9918 28
7935 9916 9919 28
7936 9916 9920 28
7937 9921 9922 28
7938 9921 9923 28
7939 9921 9924 28
7940 9921 9925 28
7941 9926 9927 28
7942 9926 9928 28
7943 9926 9929 28
7944 9926 9930 28
7945 9931 9932 28
7946 9931 9933 28
7947 9931 9934 28
7948 9931 9935 28
7949 9936 9937 28
7950 9936 9938 28
7951 9936 9939 28
7952 9936 9940 28
7953 9941 9942 28
7954 9941 9943 28
7955 9941 9944 28
7956 9941 9945 28
7957 9946 9947 28
7958 9946 9948 28
7959 9946 9949 28
7960 9946 9950 28
7961 9951 9952 28
7962 9951 9953 28
7963 9951 9954 28
7964 9951 9955 28
7965 9956 9957 28
7966 9956 9958 28
7967 9956 9959 28
7968 9956 9960 28
7969 9961 9962 28
7970 9961 9963 28
7971 9961 9964 28
7972 9961 9965 28
7973 9966 9967 28
7974 9966 9968 28
7975 9966 9969 28
7976 9966 9970 28
7977 9971 9972 28
7978 9971 9973 28
7979 9971 9974 28
7980 9971 9975 28
7981 9976 9977 28
7982 9976 9978 28
7983 9976 9979 28
7984 9976 9980 28
7985 9981 9982 28
7986 9981 9983 28
7987 9981 9984 28
7988 9981 9985 28
7989 9986 9987 28
7990 9986 9988 28
7991 9986 9989 28
7992 9986 9990 28
7993 9991 9992 28
7994 9991 9993 28
7995 9991 9994 28
7996 9991 9995 28
7997 9996 9997 28
7998 9996 9998 28
7999 9996 9999 28
8000 9996 10000 28
8001 10001 10002 28
8002 10001 10003 28
8003 10001 10004 28
8004 10001 10005 28
8005 10006 10007 28
8006 10006 10008 28
8007 10006 10009 28
8008 10006 10010 28
8009 10011 10012 28
8010 10011 10013 28
8011 10011 10014 28
8012 10011 10015 28
8013 10016 10017 28
8014 10016 10018 28
8015 10016 10019 28
8016 10016 10020 28
8017 10021 10022 28
8018 10021 10023 28
8019 10021 10024 28
8020 10021 10025 28
8021 10026 10027 28
8022 10026 10028 28
8023 10026 10029 28
8024 10026 10030 28
8025 10031 10032 28
8026 10031 10033 28
8027 10031 10034 28
8028 10031 10035 28
8029 10036 10037 28
8030 10036 10038 28
8031 10036 10039 28
8032 10036 10040 28
8033 10041 10042 28
8034 10041 10043 28
8035 10041 10044 28
8036 10041 10045 28
8037 10046 10047 28
8038 10046 10048 28
8039 10046 10049 28
8040 10046 10050 28
8041 10051 10052 28
8042 10051 10053 28
8043 10051 10054 28
8044 10051 10055 28
8045 10056 10057 28
8046 10056 10058 28
8047 10056 10059 28
8048 10056 10060 28
8049 10061 10062 28
8050 10061 10063 28
8051 10061 10064 28
8052 10061 10065 28
8053 10066 10067 28
8054 10066 10068 28
8055 10066 10069 28
8056 10066 10070 28
8057 10071 10072 28
8058 10071 10073 28
8059 10071 10074 28
8060 10071 10075 28
8061 10076 10077 28
8062 10076 10078 28
8063 10076 10079 28
8064 10076 10080 28
8065 10081 10082 28
8066 10081 10083 28
8067 10081 10084 28
8068 10081 10085 28
8069 10086 10087 28
8070 10086 10088 28
8071 10086 10089 28
8072 10086 10090 28
8073 10091 10092 28
8074 10091 10093 28
8075 10091 10094 28
8076 10091 10095 28
8077 10096 10097 28
8078 10096 10098 28
8079 10096 10099 28
8080 10096 10100 28
8081 10101 10102 28
8082 10101 10103 28
8083 10101 10104 28
8084 10101 10105 28
8085 10106 10107 28
8086 10106 10108 28
8087 10106 10109 28
8088 10106 10110 28
8089 10111 10112 28
8090 10111 10113 28
8091 10111 10114 28
8092 10111 10115 28
8093 10116 10117 28
8094 10116 10118 28
8095 10116 10119 28
8096 10116 10120 28
8097 10121 10122 28
8098 10121 10123 28
8099 10121 10124 28
8100 10121 10125 28
8101 10126 10127 28
8102 10126 10128 28
8103 10126 10129 28
8104 10126 10130 28
8105 10131 10132 28
8106 10131 10133 28
8107 10131 10134 28
8108 10131 10135 28
8109 10136 10137 28
8110 10136 10138 28
8111 10136 10139 28
8112 10136 10140 28
8113 10141 10142 28
8114 10141 10143 28
8115 10141 10144 28
8116 10141 10145 28
8117 10146 10147 28
8118 10146 10148 28
8119 10146 10149 28
8120 10146 10150 28
8121 10151 10152 28
8122 10151 10153 28
8123 10151 10154 28
8124 10151 10155 28
8125 10156 10157 28
8126 10156 10158 28
8127 10156 10159 28
8128 10156 10160 28
8129 10161 10162 28
8130 10161 10163 28
8131 10161 10164 28
8132 10161 10165 28
8133 10166 10167 28
8134 10166 10168 28
8135 10166 10169 28
8136 10166 10170 28
8137 10171 10172 28
8138 10171 10173 28
8139 10171 10174 28
8140 10171 10175 28
8141 10176 10177 28
8142 10176 10178 28
8143 10176 10179 28
8144 10176 10180 28
8145 10181 10182 28
8146 10181 10183 28
8147 10181 10184 28
8148 10181 10185 28
8149 10186 10187 28
8150 10186 10188 28
8151 10186 10189 28
8152 10186 10190 28
8153 10191 10192 28
8154 10191 10193 28
8155 10191 10194 28
8156 10191 10195 28
8157 10196 10197 28
8158 10196 10198 28
8159 10196 10199 28
8160 10196 10200 28
8161 10201 10202 28
8162 10201 10203 28
8163 10201 10204 28
8164 10201 10205 28
8165 10206 10207 28
8166 10206 10208 28
8167 10206 10209 28
8168 10206 10210 28
8169 10211 10212 28
8170 10211 10213 28
8171 10211 10214 28
8172 10211 10215 28
8173 10216 10217 28
8174 10216 10218 28
8175 10216 10219 28
8176 10216 10220 28
8177 10221 10222 28
8178 10221 10223 28
8179 10221 10224 28
8180 10221 10225 28
8181 10226 10227 28
8182 10226 10228 28
8183 10226 10229 28
8184 10226 10230 28
8185 10231 10232 28
8186 10231 10233 28
8187 10231 10234 28
8188 10231 10235 28
8189 10236 10237 28
8190 10236 10238 28
8191 10236 10239 28
8192 10236 10240 28
8193 10241 10242 28
8194 10241 10243 28
8195 10241 10244 28
8196 10241 10245 28
8197 10246 10247 28
8198 10246 10248 28
8199 10246 10249 28
8200 10246 10250 28
8201 10251 10252 28
8202 10251 10253 28
8203 10251 10254 28
8204 10251 10255 28
8205 10256 10257 28
8206 10256 10258 28
8207 10256 10259 28
8208 10256 10260 28
8209 10261 10262 28
8210 10261 10263 28
8211 10261 10264 28
8212 10261 10265 28
8213 10266 10267 28
8214 10266 10268 28
8215 10266 10269 28
8216 10266 10270 28
8217 10271 10272 28
8218 10271 10273 28
8219 10271 10274 28
8220 10271 10275 28
8221 10276 10277 28
8222 10276 10278 28
8223 10276 10279 28
8224 10276 10280 28
8225 10281 10282 28
8226 10281 10283 28
8227 10281 10284 28
8228 10281 10285 28
8229 10286 10287 28
8230 10286 10288 28
8231 10286 10289 28
8232 10286 10290 28
8233 10291 10292 28
8234 10291 10293 28
8235 10291 10294 28
8236 10291 10295 28
8237 10296 10297 28
8238 10296 10298 28
8239 10296 10299 28
8240 10296 10300 28
8241 10301 10302 28
8242 10301 10303 28
8243 10301 10304 28
8244 10301 10305 28
8245 10306 10307 28
8246 10306 10308 28
8247 10306 10309 28
8248 10306 10310 28
8249 10311 10312 28
8250 10311 10313 28
8251 10311 10314 28
8252 10311 10315 28
8253 10316 10317 28
8254 10316 10318 28
8255 10316 10319 28
8256 10316 10320 28
8257 10321 10322 28
8258 10321 10323 28
8259 10321 10324 28
8260 10321 10325 28
8261 10326 10327 28
8262 10326 10328 28
8263 10326 10329 28
8264 10326 10330 28
8265 10331 10332 28
8266 10331 10333 28
8267 10331 10334 28
8268 10331 10335 28
8269 10336 10337 28
8270 10336 10338 28
8271 10336 10339 28
8272 10336 10340 28
8273 10341 10342 28
8274 10341 10343 28
8275 10341 10344 28
8276 10341 10345 28
8277 10346 10347 28
8278 10346 10348 28
8279 10346 10349 28
8280 10346 10350 28
8281 10351 10352 28
8282 10351 10353 28
8283 10351 10354 28
8284 10351 10355 28
8285 10356 10357 28
8286 10356 10358 28
8287 10356 10359 28
8288 10356 10360 28
8289 10361 10362 28
8290 10361 10363 28
8291 10361 10364 28
8292 10361 10365 28
8293 10366 10367 28
8294 10366 10368 28
8295 10366 10369 28
8296 10366 10370 28
8297 10371 10372 28
8298 10371 10373 28
8299 10371 10374 28
8300 10371 10375 28
8301 10376 10377 28
8302 10376 10378 28
8303 10376 10379 28
8304 10376 10380 28
8305 10381 10382 28
8306 10381 10383 28
8307 10381 10384 28
8308 10381 10385 28
8309 10386 10387 28
8310 10386 10388 28
8311 10386 10389 28
8312 10386 10390 28
8313 10391 10392 28
8314 10391 10393 28
8315 10391 10394 28
8316 10391 10395 28
8317 10396 10397 28
8318 10396 10398 28
8319 10396 10399 28
8320 10396 10400 28
8321 10401 10402 28
8322 10401 10403 28
8323 10401 10404 28
8324 10401 10405 28
8325 10406 10407 28
8326 10406 10408 28
8327 10406 10409 28
8328 10406 10410 28
8329 10411 10412 28
8330 10411 10413 28
8331 10411 10414 28
8332 10411 10415 28
8333 10416 10417 28
8334 10416 10418 28
8335 10416 10419 28
8336 10416 10420 28
8337 10421 10422 28
8338 10421 10423 28
8339 10421 10424 28
8340 10421 10425 28
8341 10426 10427 28
8342 10426 10428 28
8343 10426 10429 28
8344 10426 10430 28
8345 10431 10432 28
8346 10431 10433 28
8347 10431 10434 28
8348 10431 10435 28
8349 10436 10437 28
8350 10436 10438 28
8351 10436 10439 28
8352 10436 10440 28
8353 10441 10442 28
8354 10441 10443 28
8355 10441 10444 28
8356 10441 10445 28
8357 10446 10447 28
8358 10446 10448 28
8359 10446 10449 28
8360 10446 10450 28
8361 10451 10452 28
8362 10451 10453 28
8363 10451 10454 28
8364 10451 10455 28
8365 10456 10457 28
8366 10456 10458 28
8367 10456 10459 28
8368 10456 10460 28
8369 10461 10462 28
8370 10461 10463 28
8371 10461 10464 28
8372 10461 10465 28
8373 10466 10467 28
8374 10466 10468 28
8375 10466 10469 28
8376 10466 10470 28
8377 10471 10472 28
8378 10471 10473 28
8379 10471 10474 28
8380 10471 10475 28
8381 10476 10477 28
8382 10476 10478 28
8383 10476 10479 28
8384 10476 10480 28
8385 10481 10482 28
8386 10481 10483 28
8387 10481 10484 28
8388 10481 10485 28
8389 10486 10487 28
8390 10486 10488 28
8391 10486 10489 28
8392 10486 10490 28
8393 10491 10492 28
8394 10491 10493 28
8395 10491 10494 28
8396 10491 10495 28
8397 10496 10497 28
8398 10496 10498 28
8399 10496 10499 28
8400 10496 10500 28
8401 10501 10502 28
8402 10501 10503 28
8403 10501 10504 28
8404 10501 10505 28
8405 10506 10507 28
8406 10506 10508 28
8407 10506 10509 28
8408 10506 10510 28
8409 10511 10512 28
8410 10511 10513 28
8411 10511 10514 28
8412 10511 10515 28
8413 10516 10517 28
8414 10516 10518 28
8415 10516 10519 28
8416 10516 10520 28
8417 10521 10522 28
8418 10521 10523 28
8419 10521 10524 28
8420 10521 10525 28
8421 10526 10527 28
8422 10526 10528 28
8423 10526 10529 28
8424 10526 10530 28
8425 10531 10532 28
8426 10531 10533 28
8427 10531 10534 28
8428 10531 10535 28
8429 10536 10537 28
8430 10536 10538 28
8431 10536 10539 28
8432 10536 10540 28
8433 10541 10542 28
8434 10541 10543 28
8435 10541 10544 28
8436 10541 10545 28
8437 10546 10547 28
8438 10546 10548 28
8439 10546 10549 28
8440 10546 10550 28
8441 10551 10552 28
8442 10551 10553 28
8443 10551 10554 28
8444 10551 10555 28
8445 10556 10557 28
8446 10556 10558 28
8447 10556 10559 28
8448 10556 10560 28
8449 10561 10562 28
8450 10561 10563 28
8451 10561 10564 28
8452 10561 10565 28
8453 10566 10567 28
8454 10566 10568 28
8455 10566 10569 28
8456 10566 10570 28
8457 10571 10572 28
8458 10571 10573 28
8459 10571 10574 28
8460 10571 10575 28
8461 10576 10577 28
8462 10576 10578 28
8463 10576 10579 28
8464 10576 10580 28
8465 10581 10582 28
8466 10581 10583 28
8467 10581 10584 28
8468 10581 10585 28
8469 10586 10587 28
8470 10586 10588 28
8471 10586 10589 28
8472 10586 10590 28
8473 10591 10592 28
8474 10591 10593 28
8475 10591 10594 28
8476 10591 10595 28
8477 10596 10597 28
8478 10596 10598 28
8479 10596 10599 28
8480 10596 10600 28
8481 10601 10602 28
8482 10601 10603 28
8483 10601 10604 28
8484 10601 10605 28
8485 10606 10607 28
8486 10606 10608 28
8487 10606 10609 28
8488 10606 10610 28
8489 10611 10612 28
8490 10611 10613 28
8491 10611 10614 28
8492 10611 10615 28
8493 10616 10617 28
8494 10616 10618 28
8495 10616 10619 28
8496 10616 10620 28
8497 10621 10622 28
8498 10621 10623 28
8499 10621 10624 28
8500 10621 10625 28
8501 10626 10627 28
8502 10626 10628 28
8503 10626 10629 28
8504 10626 10630 28
8505 10631 10632 28
8506 10631 10633 28
8507 10631 10634 28
8508 10631 10635 28
8509 10636 10637 28
8510 10636 10638 28
8511 10636 10639 28
8512 10636 10640 28
8513 10641 10642 28
8514 10641 10643 28
8515 10641 10644 28
8516 10641 10645 28
8517 10646 10647 28
8518 10646 10648 28
8519 10646 10649 28
8520 10646 10650 28
8521 10651 10652 28
8522 10651 10653 28
8523 10651 10654 28
8524 10651 10655 28
8525 10656 10657 28
8526 10656 10658 28
8527 10656 10659 28
8528 10656 10660 28
8529 10661 10662 28
8530 10661 10663 28
8531 10661 10664 28
8532 10661 10665 28
8533 10666 10667 28
8534 10666 10668 28
8535 10666 10669 28
8536 10666 10670 28
8537 10671 10672 28
8538 10671 10673 28
8539 10671 10674 28
8540 10671 10675 28
8541 10676 10677 28
8542 10676 10678 28
8543 10676 10679 28
8544 10676 10680 28
8545 10681 10682 28
8546 10681 10683 28
8547 10681 10684 28
8548 10681 10685 28
8549 10686 10687 28
8550 10686 10688 28
8551 10686 10689 28
8552 10686 10690 28
8553 10691 10692 28
8554 10691 10693 28
8555 10691 10694 28
8556 10691 10695 28
8557 10696 10697 28
8558 10696 10698 28
8559 10696 10699 28
8560 10696 10700 28
8561 10701 10702 28
8562 10701 10703 28
8563 10701 10704 28
8564 10701 10705 28
8565 10706 10707 28
8566 10706 10708 28
8567 10706 10709 28
8568 10706 10710 28
8569 10711 10712 28
8570 10711 10713 28
8571 10711 10714 28
8572 10711 10715 28
8573 10716 10717 28
8574 10716 10718 28
8575 10716 10719 28
8576 10716 10720 28
8577 10721 10722 28
8578 10721 10723 28
8579 10721 10724 28
8580 10721 10725 28
8581 10726 10727 28
8582 10726 10728 28
8583 10726 10729 28
8584 10726 10730 28
8585 10731 10732 28
8586 10731 10733 28
8587 10731 10734 28
8588 10731 10735 28
8589 10736 10737 28
8590 10736 10738 28
8591 10736 10739 28
8592 10736 10740 28
8593 10741 10742 28
8594 10741 10743 28
8595 10741 10744 28
8596 10741 10745 28
8597 10746 10747 28
8598 10746 10748 28
8599 10746 10749 28
8600 10746 10750 28
8601 10751 10752 28
8602 10751 10753 28
8603 10751 10754 28
8604 10751 10755 28
8605 10756 10757 28
8606 10756 10758 28
8607 10756 10759 28
8608 10756 10760 28
8609 10761 10762 28
8610 10761 10763 28
8611 10761 10764 28
8612 10761 10765 28
8613 10766 10767 28
8614 10766 10768 28
8615 10766 10769 28
8616 10766 10770 28
8617 10771 10772 28
8618 10771 10773 28
8619 10771 10774 28
8620 10771 10775 28
8621 10776 10777 28
8622 10776 10778 28
8623 10776 10779 28
8624 10776 10780 28
8625 10781 10782 28
8626 10781 10783 28
8627 10781 10784 28
8628 10781 10785 28
8629 10786 10787 28
8630 10786 10788 28
8631 10786 10789 28
8632 10786 10790 28
8633 10791 10792 28
8634 10791 10793 28
8635 10791 10794 28
8636 10791 10795 28
8637 10796 10797 28
8638 10796 10798 28
8639 10796 10799 28
8640 10796 10800 28
8641 10801 10802 28
8642 10801 10803 28
8643 10801 10804 28
8644 10801 10805 28
8645 10806 10807 28
8646 10806 10808 28
8647 10806 10809 28
8648 10806 10810 28
8649 10811 10812 28
8650 10811 10813 28
8651 10811 10814 28
8652 10811 10815 28
8653 10816 10817 28
8654 10816 10818 28
8655 10816 10819 28
8656 10816 10820 28
8657 10821 10822 28
8658 10821 10823 28
8659 10821 10824 28
8660 10821 10825 28
8661 10826 10827 28
8662 10826 10828 28
8663 10826 10829 28
8664 10826 10830 28
8665 10831 10832 28
8666 10831 10833 28
8667 10831 10834 28
8668 10831 10835 28
8669 10836 10837 28
8670 10836 10838 28
8671 10836 10839 28
8672 10836 10840 28
8673 10841 10842 28
8674 10841 10843 28
8675 10841 10844 28
8676 10841 10845 28
8677 10846 10847 28
8678 10846 10848 28
8679 10846 10849 28
8680 10846 10850 28
8681 10851 10852 28
8682 10851 10853 28
8683 10851 10854 28
8684 10851 10855 28
8685 10856 10857 28
8686 10856 10858 28
8687 10856 10859 28
8688 10856 10860 28
8689 10861 10862 28
8690 10861 10863 28
8691 10861 10864 28
8692 10861 10865 28
8693 10866 10867 28
8694 10866 10868 28
8695 10866 10869 28
8696 10866 10870 28
8697 10871 10872 28
8698 10871 10873 28
8699 10871 10874 28
8700 10871 10875 28
8701 10876 10877 28
8702 10876 10878 28
8703 10876 10879 28
8704 10876 10880 28
8705 10881 10882 28
8706 10881 10883 28
8707 10881 10884 28
8708 10881 10885 28
8709 10886 10887 28
8710 10886 10888 28
8711 10886 10889 28
8712 10886 10890 28
8713 10891 10892 28
8714 10891 10893 28
8715 10891 10894 28
8716 10891 10895 28
8717 10896 10897 28
8718 10896 10898 28
8719 10896 10899 28
8720 10896 10900 28
8721 10901 10902 28
8722 10901 10903 28
8723 10901 10904 28
8724 10901 10905 28
8725 10906 10907 28
8726 10906 10908 28
8727 10906 10909 28
8728 10906 10910 28
8729 10911 10912 28
8730 10911 10913 28
8731 10911 10914 28
8732 10911 10915 28
8733 10916 10917 28
8734 10916 10918 28
8735 10916 10919 28
8736 10916 10920 28
8737 10921 10922 28
8738 10921 10923 28
8739 10921 10924 28
8740 10921 10925 28
8741 10926 10927 28
8742 10926 10928 28
8743 10926 10929 28
8744 10926 10930 28
8745 10931 10932 28
8746 10931 10933 28
8747 10931 10934 28
8748 10931 10935 28
8749 10936 10937 28
8750 10936 10938 28
8751 10936 10939 28
8752 10936 10940 28
8753 10941 10942 28
8754 10941 10943 28
8755 10941 10944 28
8756 10941 10945 28
8757 10946 10947 28
8758 10946 10948 28
8759 10946 10949 28
8760 10946 10950 28
8761 10951 10952 28
8762 10951 10953 28
8763 10951 10954 28
8764 10951 10955 28
8765 10956 10957 28
8766 10956 10958 28
8767 10956 10959 28
8768 10956 10960 28
8769 10961 10962 28
8770 10961 10963 28
8771 10961 10964 28
8772 10961 10965 28
8773 10966 10967 28
8774 10966 10968 28
8775 10966 10969 28
8776 10966 10970 28
8777 10971 10972 28
8778 10971 10973 28
8779 10971 10974 28
8780 10971 10975 28
8781 10976 10977 28
8782 10976 10978 28
8783 10976 10979 28
8784 10976 10980 28
8785 10981 10982 28
8786 10981 10983 28
8787 10981 10984 28
8788 10981 10985 28
8789 10986 10987 28
8790 10986 10988 28
8791 10986 10989 28
8792 10986 10990 28
8793 10991 10992 28
8794 10991 10993 28
8795 10991 10994 28
8796 10991 10995 28
8797 10996 10997 28
8798 10996 10998 28
8799 10996 10999 28
8800 10996 11000 28
8801 11001 11002 28
8802 11001 11003 28
8803 11001 11004 28
8804 11001 11005 28
8805 11006 11007 28
8806 11006 11008 28
8807 11006 11009 28
8808 11006 11010 28
8809 11011 11012 28
8810 11011 11013 28
8811 11011 11014 28
8812 11011 11015 28
8813 11016 11017 28
8814 11016 11018 28
8815 11016 11019 28
8816 11016 11020 28
8817 11021 11022 28
8818 11021 11023 28
8819 11021 11024 28
8820 11021 11025 28
8821 11026 11027 28
8822 11026 11028 28
8823 11026 11029 28
8824 11026 11030 28
8825 11031 11032 28
8826 11031 11033 28
8827 11031 11034 28
8828 11031 11035 28
8829 11036 11037 28
8830 11036 11038 28
8831 11036 11039 28
8832 11036 11040 28
8833 11041 11042 28
8834 11041 11043 28
8835 11041 11044 28
8836 11041 11045 28
8837 11046 11047 28
8838 11046 11048 28
8839 11046 11049 28
8840 11046 11050 28
8841 11051 11052 28
8842 11051 11053 28
8843 11051 11054 28
8844 11051 11055 28
8845 11056 11057 28
8846 11056 11058 28
8847 11056 11059 28
8848 11056 11060 28
8849 11061 11062 28
8850 11061 11063 28
8851 11061 11064 28
8852 11061 11065 28
8853 11066 11067 28
8854 11066 11068 28
8855 11066 11069 28
8856 11066 11070 28
8857 11071 11072 28
8858 11071 11073 28
8859 11071 11074 28
8860 11071 11075 28
8861 11076 11077 28
8862 11076 11078 28
8863 11076 11079 28
8864 11076 11080 28
8865 11081 11082 28
8866 11081 11083 28
8867 11081 11084 28
8868 11081 11085 28
8869 11086 11087 28
8870 11086 11088 28
8871 11086 11089 28
8872 11086 11090 28
8873 11091 11092 28
8874 11091 11093 28
8875 11091 11094 28
8876 11091 11095 28
8877 11096 11097 28
8878 11096 11098 28
8879 11096 11099 28
8880 11096 11100 28
8881 11101 11102 28
8882 11101 11103 28
8883 11101 11104 28
8884 11101 11105 28
8885 11106 11107 28
8886 11106 11108 28
8887 11106 11109 28
8888 11106 11110 28
8889 11111 11112 28
8890 11111 11113 28
8891 11111 11114 28
8892 11111 11115 28
8893 11116 11117 28
8894 11116 11118 28
8895 11116 11119 28
8896 11116 11120 28
8897 11121 11122 28
8898 11121 11123 28
8899 11121 11124 28
8900 11121 11125 28
8901 11126 11127 28
8902 11126 11128 28
8903 11126 11129 28
8904 11126 11130 28
8905 11131 11132 28
8906 11131 11133 28
8907 11131 11134 28
8908 11131 11135 28
8909 11136 11137 28
8910 11136 11138 28
8911 11136 11139 28
8912 11136 11140 28
8913 11141 11142 28
8914 11141 11143 28
8915 11141 11144 28
8916 11141 11145 28
8917 11146 11147 28
8918 11146 11148 28
8919 11146 11149 28
8920 11146 11150 28
8921 11151 11152 28
8922 11151 11153 28
8923 11151 11154 28
8924 11151 11155 28
8925 11156 11157 28
8926 11156 11158 28
8927 11156 11159 28
8928 11156 11160 28
8929 11161 11162 28
8930 11161 11163 28
8931 11161 11164 28
8932 11161 11165 28
8933 11166 11167 28
8934 11166 11168 28
8935 11166 11169 28
8936 11166 11170 28
8937 11171 11172 28
8938 11171 11173 28
8939 11171 11174 28
8940 11171 11175 28
8941 11176 11177 28
8942 11176 11178 28
8943 11176 11179 28
8944 11176 11180 28
8945 11181 11182 28
8946 11181 11183 28
8947 11181 11184 28
8948 11181 11185 28
8949 11186 11187 28
8950 11186 11188 28
8951 11186 11189 28
8952 11186 11190 28
8953 11191 11192 28
8954 11191 11193 28
8955 11191 11194 28
8956 11191 11195 28
8957 11196 11197 28
8958 11196 11198 28
8959 11196 11199 28
8960 11196 11200 28
8961 11201 11202 28
8962 11201 11203 28
8963 11201 11204 28
8964 11201 11205 28
8965 11206 11207 28
8966 11206 11208 28
8967 11206 11209 28
8968 11206 11210 28
8969 11211 11212 28
8970 11211 11213 28
8971 11211 11214 28
8972 11211 11215 28
8973 11216 11217 28
8974 11216 11218 28
8975 11216 11219 28
8976 11216 11220 28
8977 11221 11222 28
8978 11221 11223 28
8979 11221 11224 28
8980 11221 11225 28
8981 11226 11227 28
8982 11226 11228 28
8983 11226 11229 28
8984 11226 11230 28
8985 11231 11232 28
8986 11231 11233 28
8987 11231 11234 28
8988 11231 11235 28
8989 11236 11237 28
8990 11236 11238 28
8991 11236 11239 28
8992 11236 11240 28
8993 11241 11242 28
8994 11241 11243 28
8995 11241 11244 28
8996 11241 11245 28
8997 11246 11247 28
8998 11246 11248 28
8999 11246 11249 28
9000 11246 11250 28
9001 11251 11252 28
9002 11251 11253 28
9003 11251 11254 28
9004 11251 11255 28
9005 11256 11257 28
9006 11256 11258 28
9007 11256 11259 28
9008 11256 11260 28
9009 11261 11262 28
9010 11261 11263 28
9011 11261 11264 28
9012 11261 11265 28
9013 11266 11267 28
9014 11266 11268 28
9015 11266 11269 28
9016 11266 11270 28
9017 11271 11272 28
9018 11271 11273 28
9019 11271 11274 28
9020 11271 11275 28
9021 11276 11277 28
9022 11276 11278 28
9023 11276 11279 28
9024 11276 11280 28
9025 11281 11282 28
9026 11281 11283 28
9027 11281 11284 28
9028 11281 11285 28
9029 11286 11287 28
9030 11286 11288 28
9031 11286 11289 28
9032 11286 11290 28
9033 11291 11292 28
9034 11291 11293 28
9035 11291 11294 28
9036 11291 11295 28
9037 11296 11297 28
9038 11296 11298 28
9039 11296 11299 28
9040 11296 11300 28
9041 11301 11302 28
9042 11301 11303 28
9043 11301 11304 28
9044 11301 11305 28
9045 11306 11307 28
9046 11306 11308 28
9047 11306 11309 28
9048 11306 11310 28
9049 11311 11312 28
9050 11311 11313 28
9051 11311 11314 28
9052 11311 11315 28
9053 11316 11317 28
9054 11316 11318 28
9055 11316 11319 28
9056 11316 11320 28
9057 11321 11322 28
9058 11321 11323 28
9059 11321 11324 28
9060 11321 11325 28
9061 11326 11327 28
9062 11326 11328 28
9063 11326 11329 28
9064 11326 11330 28
9065 11331 11332 28
9066 11331 11333 28
9067 11331 11334 28
9068 11331 11335 28
9069 11336 11337 28
9070 11336 11338 28
9071 11336 11339 28
9072 11336 11340 28
9073 11341 11342 28
9074 11341 11343 28
9075 11341 11344 28
9076 11341 11345 28
9077 11346 11347 28
9078 11346 11348 28
9079 11346 11349 28
9080 11346 11350 28
9081 11351 11352 28
9082 11351 11353 28
9083 11351 11354 28
9084 11351 11355 28
9085 11356 11357 28
9086 11356 11358 28
9087 11356 11359 28
9088 11356 11360 28
9089 11361 11362 28
9090 11361 11363 28
9091 11361 11364 28
9092 11361 11365 28
9093 11366 11367 28
9094 11366 11368 28
9095 11366 11369 28
9096 11366 11370 28
9097 11371 11372 28
9098 11371 11373 28
9099 11371 11374 28
9100 11371 11375 28
9101 11376 11377 28
9102 11376 11378 28
9103 11376 11379 28
9104 11376 11380 28
9105 11381 11382 28
9106 11381 11383 28
9107 11381 11384 28
9108 11381 11385 28
9109 11386 11387 28
9110 11386 11388 28
9111 11386 11389 28
9112 11386 11390 28
9113 11391 11392 28
9114 11391 11393 28
9115 11391 11394 28
9116 11391 11395 28
9117 11396 11397 28
9118 11396 11398 28
9119 11396 11399 28
9120 11396 11400 28
9121 11401 11402 28
9122 11401 11403 28
9123 11401 11404 28
9124 11401 11405 28
9125 11406 11407 28
9126 11406 11408 28
9127 11406 11409 28
9128 11406 11410 28
9129 11411 11412 28
9130 11411 11413 28
9131 11411 11414 28
9132 11411 11415 28
9133 11416 11417 28
9134 11416 11418 28
9135 11416 11419 28
9136 11416 11420 28
9137 11421 11422 28
9138 11421 11423 28
9139 11421 11424 28
9140 11421 11425 28
9141 11426 11427 28
9142 11426 11428 28
9143 11426 11429 28
9144 11426 11430 28
9145 11431 11432 28
9146 11431 11433 28
9147 11431 11434 28
9148 11431 11435 28
9149 11436 11437 28
9150 11436 11438 28
9151 11436 11439 28
9152 11436 11440 28
9153 11441 11442 28
9154 11441 11443 28
9155 11441 11444 28
9156 11441 11445 28
9157 11446 11447 28
9158 11446 11448 28
9159 11446 11449 28
9160 11446 11450 28
9161 11451 11452 28
9162 11451 11453 28
9163 11451 11454 28
9164 11451 11455 28
9165 11456 11457 28
9166 11456 11458 28
9167 11456 11459 28
9168 11456 11460 28
9169 11461 11462 28
9170 11461 11463 28
9171 11461 11464 28
9172 11461 11465 28
9173 11466 11467 28
9174 11466 11468 28
9175 11466 11469 28
9176 11466 11470 28
9177 11471 11472 28
9178 11471 11473 28
9179 11471 11474 28
9180 11471 11475 28
9181 11476 11477 28
9182 11476 11478 28
9183 11476 11479 28
9184 11476 11480 28
9185 11481 11482 28
9186 11481 11483 28
9187 11481 11484 28
9188 11481 11485 28
9189 11486 11487 28
9190 11486 11488 28
9191 11486 11489 28
9192 11486 11490 28
9193 11491 11492 28
9194 11491 11493 28
9195 11491 11494 28
9196 11491 11495 28
9197 11496 11497 28
9198 11496 11498 28
9199 11496 11499 28
9200 11496 11500 28
9201 11501 11502 28
9202 11501 11503 28
9203 11501 11504 28
9204 11501 11505 28
9205 11506 11507 28
9206 11506 11508 28
9207 11506 11509 28
9208 11506 11510 28
9209 11511 11512 28
9210 11511 11513 28
9211 11511 11514 28
9212 11511 11515 28
9213 11516 11517 28
9214 11516 11518 28
9215 11516 11519 28
9216 11516 11520 28
9217 11521 11522 28
9218 11521 11523 28
9219 11521 11524 28
9220 11521 11525 28
9221 11526 11527 28
9222 11526 11528 28
9223 11526 11529 28
9224 11526 11530 28
9225 11531 11532 28
9226 11531 11533 28
9227 11531 11534 28
9228 11531 11535 28
9229 11536 11537 28
9230 11536 11538 28
9231 11536 11539 28
9232 11536 11540 28
9233 11541 11542 28
9234 11541 11543 28
9235 11541 11544 28
9236 11541 11545 28
9237 11546 11547 28
9238 11546 11548 28
9239 11546 11549 28
9240 11546 11550 28
9241 11551 11552 28
9242 11551 11553 28
9243 11551 11554 28
9244 11551 11555 28
9245 11556 11557 28
9246 11556 11558 28
9247 11556 11559 28
9248 11556 11560 28
9249 11561 11562 28
9250 11561 11563 28
9251 11561 11564 28
9252 11561 11565 28
9253 11566 11567 28
9254 11566 11568 28
9255 11566 11569 28
9256 11566 11570 28
9257 11571 11572 28
9258 11571 11573 28
9259 11571 11574 28
9260 11571 11575 28
9261 11576 11577 28
9262 11576 11578 28
9263 11576 11579 28
9264 11576 11580 28
9265 11581 11582 28
9266 11581 11583 28
9267 11581 11584 28
9268 11581 11585 28
9269 11586 11587 28
9270 11586 11588 28
9271 11586 11589 28
9272 11586 11590 28
9273 11591 11592 28
9274 11591 11593 28
9275 11591 11594 28
9276 11591 11595 28
9277 11596 11597 28
9278 11596 11598 28
9279 11596 11599 28
9280 11596 11600 28
9281 11601 11602 28
9282 11601 11603 28
9283 11601 11604 28
9284 11601 11605 28
9285 11606 11607 28
9286 11606 11608 28
9287 11606 11609 28
9288 11606 11610 28
9289 11611 11612 28
9290 11611 11613 28
9291 11611 11614 28
9292 11611 11615 28
9293 11616 11617 28
9294 11616 11618 28
9295 11616 11619 28
9296 11616 11620 28
9297 11621 11622 28
9298 11621 11623 28
9299 11621 11624 28
9300 11621 11625 28
9301 11626 11627 28
9302 11626 11628 28
9303 11626 11629 28
9304 11626 11630 28
9305 11631 11632 28
9306 11631 11633 28
9307 11631 11634 28
9308 11631 11635 28
9309 11636 11637 28
9310 11636 11638 28
9311 11636 11639 28
9312 11636 11640 28
9313 11641 11642 28
9314 11641 11643 28
9315 11641 11644 28
9316 11641 11645 28
9317 11646 11647 28
9318 11646 11648 28
9319 11646 11649 28
9320 11646 11650 28
9321 11651 11652 28
9322 11651 11653 28
9323 11651 11654 28
9324 11651 11655 28
9325 11656 11657 28
9326 11656 11658 28
9327 11656 11659 28
9328 11656 11660 28
9329 11661 11662 28
9330 11661 11663 28
9331 11661 11664 28
9332 11661 11665 28
9333 11666 11667 28
9334 11666 11668 28
9335 11666 11669 28
9336 11666 11670 28
9337 11671 11672 28
9338 11671 11673 28
9339 11671 11674 28
9340 11671 11675 28
9341 11676 11677 28
9342 11676 11678 28
9343 11676 11679 28
9344 11676 11680 28
9345 11681 11682 28
9346 11681 11683 28
9347 11681 11684 28
9348 11681 11685 28
9349 11686 11687 28
9350 11686 11688 28
9351 11686 11689 28
9352 11686 11690 28
9353 11691 11692 28
9354 11691 11693 28
9355 11691 11694 28
9356 11691 11695 28
9357 11696 11697 28
9358 11696 11698 28
9359 11696 11699 28
9360 11696 11700 28
9361 11701 11702 28
9362 11701 11703 28
9363 11701 11704 28
9364 11701 11705 28
9365 11706 11707 28
9366 11706 11708 28
9367 11706 11709 28
9368 11706 11710 28
9369 11711 11712 28
9370 11711 11713 28
9371 11711 11714 28
9372 11711 11715 28
9373 11716 11717 28
9374 11716 11718 28
9375 11716 11719 28
9376 11716 11720 28
9377 11721 11722 28
9378 11721 11723 28
9379 11721 11724 28
9380 11721 11725 28
9381 11726 11727 28
9382 11726 11728 28
9383 11726 11729 28
9384 11726 11730 28
9385 11731 11732 28
9386 11731 11733 28
9387 11731 11734 28
9388 11731 11735 28
9389 11736 11737 28
9390 11736 11738 28
9391 11736 11739 28
9392 11736 11740 28
9393 11741 11742 28
9394 11741 11743 28
9395 11741 11744 28
9396 11741 11745 28
9397 11746 11747 28
9398 11746 11748 28
9399 11746 11749 28
9400 11746 11750 28
9401 11751 11752 28
9402 11751 11753 28
9403 11751 11754 28
9404 11751 11755 28
9405 11756 11757 28
9406 11756 11758 28
9407 11756 11759 28
9408 11756 11760 28
9409 11761 11762 28
9410 11761 11763 28
9411 11761 11764 28
9412 11761 11765 28
9413 11766 11767 28
9414 11766 11768 28
9415 11766 11769 28
9416 11766 11770 28
9417 11771 11772 28
9418 11771 11773 28
9419 11771 11774 28
9420 11771 11775 28
9421 11776 11777 28
9422 11776 11778 28
9423 11776 11779 28
9424 11776 11780 28
9425 11781 11782 28
9426 11781 11783 28
9427 11781 11784 28
9428 11781 11785 28
9429 11786 11787 28
9430 11786 11788 28
9431 11786 11789 28
9432 11786 11790 28
9433 11791 11792 28
9434 11791 11793 28
9435 11791 11794 28
9436 11791 11795 28
9437 11796 11797 28
9438 11796 11798 28
9439 11796 11799 28
9440 11796 11800 28
9441 11801 11802 28
9442 11801 11803 28
9443 11801 11804 28
9444 11801 11805 28
9445 11806 11807 28
9446 11806 11808 28
9447 11806 11809 28
9448 11806 11810 28
9449 11811 11812 28
9450 11811 11813 28
9451 11811 11814 28
9452 11811 11815 28
9453 11816 11817 28
9454 11816 11818 28
9455 11816 11819 28
9456 11816 11820 28
9457 11821 11822 28
9458 11821 11823 28
9459 11821 11824 28
9460 11821 11825 28
9461 11826 11827 28
9462 11826 11828 28
9463 11826 11829 28
9464 11826 11830 28
9465 11831 11832 28
9466 11831 11833 28
9467 11831 11834 28
9468 11831 11835 28
9469 11836 11837 28
9470 11836 11838 28
9471 11836 11839 28
9472 11836 11840 28
9473 11841 11842 28
9474 11841 11843 28
9475 11841 11844 28
9476 11841 11845 28
9477 11846 11847 28
9478 11846 11848 28
9479 11846 11849 28
9480 11846 11850 28
9481 11851 11852 28
9482 11851 11853 28
9483 11851 11854 28
9484 11851 11855 28
9485 11856 11857 28
9486 11856 11858 28
9487 11856 11859 28
9488 11856 11860 28
9489 11861 11862 28
9490 11861 11863 28
9491 11861 11864 28
9492 11861 11865 28
9493 11866 11867 28
9494 11866 11868 28
9495 11866 11869 28
9496 11866 11870 28
9497 11871 11872 28
9498 11871 11873 28
9499 11871 11874 28
9500 11871 11875 28
9501 11876 11877 28
9502 11876 11878 28
9503 11876 11879 28
9504 11876 11880 28
9505 11881 11882 28
9506 11881 11883 28
9507 11881 11884 28
9508 11881 11885 28
9509 11886 11887 28
9510 11886 11888 28
9511 11886 11889 28
9512 11886 11890 28
9513 11891 11892 28
9514 11891 11893 28
9515 11891 11894 28
9516 11891 11895 28
9517 11896 11897 28
9518 11896 11898 28
9519 11896 11899 28
9520 11896 11900 28
9521 11901 11902 28
9522 11901 11903 28
9523 11901 11904 28
9524 11901 11905 28
9525 11906 11907 28
9526 11906 11908 28
9527 11906 11909 28
9528 11906 11910 28
9529 11911 11912 28
9530 11911 11913 28
9531 11911 11914 28
9532 11911 11915 28
9533 11916 11917 28
9534 11916 11918 28
9535 11916 11919 28
9536 11916 11920 28
9537 11921 11922 28
9538 11921 11923 28
9539 11921 11924 28
9540 11921 11925 28
9541 11926 11927 28
9542 11926 11928 28
9543 11926 11929 28
9544 11926 11930 28
9545 11931 11932 28
9546 11931 11933 28
9547 11931 11934 28
9548 11931 11935 28
9549 11936 11937 28
9550 11936 11938 28
9551 11936 11939 28
9552 11936 11940 28
9553 11941 11942 28
9554 11941 11943 28
9555 11941 11944 28
9556 11941 11945 28
9557 11946 11947 28
9558 11946 11948 28
9559 11946 11949 28
9560 11946 11950 28
9561 11951 11952 28
9562 11951 11953 28
9563 11951 11954 28
9564 11951 11955 28
9565 11956 11957 28
9566 11956 11958 28
9567 11956 11959 28
9568 11956 11960 28
9569 11961 11962 28
9570 11961 11963 28
9571 11961 11964 28
9572 11961 11965 28
9573 11966 11967 28
9574 11966 11968 28
9575 11966 11969 28
9576 11966 11970 28
9577 11971 11972 28
9578 11971 11973 28
9579 11971 11974 28
9580 11971 11975 28
9581 11976 11977 28
9582 11976 11978 28
9583 11976 11979 28
9584 11976 11980 28
9585 11981 11982 28
9586 11981 11983 28
9587 11981 11984 28
9588 11981 11985 28
9589 11986 11987 28
9590 11986 11988 28
9591 11986 11989 28
9592 11986 11990 28
9593 11991 11992 28
9594 11991 11993 28
9595 11991 11994 28
9596 11991 11995 28
9597 11996 11997 28
9598 11996 11998 28
9599 11996 11999 28
9600 11996 12000 28
9601 12001 12002 28
9602 12001 12003 28
9603 12001 12004 28
9604 12001 12005 28
9605 12006 12007 28
9606 12006 12008 28
9607 12006 12009 28
9608 12006 12010 28
9609 12011 12012 28
9610 12011 12013 28
9611 12011 12014 28
9612 12011 12015 28
9613 12016 12017 28
9614 12016 12018 28
9615 12016 12019 28
9616 12016 12020 28
9617 12021 12022 28
9618 12021 12023 28
9619 12021 12024 28
9620 12021 12025 28
9621 12026 12027 28
9622 12026 12028 28
9623 12026 12029 28
9624 12026 12030 28
9625 12031 12032 28
9626 12031 12033 28
9627 12031 12034 28
9628 12031 12035 28
9629 12036 12037 28
9630 12036 12038 28
9631 12036 12039 28
9632 12036 12040 28
9633 12041 12042 28
9634 12041 12043 28
9635 12041 12044 28
9636 12041 12045 28
9637 12046 12047 28
9638 12046 12048 28
9639 12046 12049 28
9640 12046 12050 28
9641 12051 12052 28
9642 12051 12053 28
9643 12051 12054 28
9644 12051 12055 28
9645 12056 12057 28
9646 12056 12058 28
9647 12056 12059 28
9648 12056 12060 28
9649 12061 12062 28
9650 12061 12063 28
9651 12061 12064 28
9652 12061 12065 28
9653 12066 12067 28
9654 12066 12068 28
9655 12066 12069 28
9656 12066 12070 28
9657 12071 12072 28
9658 12071 12073 28
9659 12071 12074 28
9660 12071 12075 28
9661 12076 12077 28
9662 12076 12078 28
9663 12076 12079 28
9664 12076 12080 28
9665 12081 12082 28
9666 12081 12083 28
9667 12081 12084 28
9668 12081 12085 28
9669 12086 12087 28
9670 12086 12088 28
9671 12086 12089 28
9672 12086 12090 28
9673 12091 12092 28
9674 12091 12093 28
9675 12091 12094 28
9676 12091 12095 28
9677 12096 12097 28
9678 12096 12098 28
9679 12096 12099 28
9680 12096 12100 28
9681 12101 12102 28
9682 12101 12103 28
9683 12101 12104 28
9684 12101 12105 28
9685 12106 12107 28
9686 12106 12108 28
9687 12106 12109 28
9688 12106 12110 28
9689 12111 12112 28
9690 12111 12113 28
9691 12111 12114 28
9692 12111 12115 28
9693 12116 12117 28
9694 12116 12118 28
9695 12116 12119 28
9696 12116 12120 28
9697 12121 12122 28
9698 12121 12123 28
9699 12121 12124 28
9700 12121 12125 28
9701 12126 12127 28
9702 12126 12128 28
9703 12126 12129 28
9704 12126 12130 28
9705 12131 12132 28
9706 12131 12133 28
9707 12131 12134 28
9708 12131 12135 28
9709 12136 12137 28
9710 12136 12138 28
9711 12136 12139 28
9712 12136 12140 28
9713 12141 12142 28
9714 12141 12143 28
9715 12141 12144 28
9716 12141 12145 28
9717 12146 12147 28
9718 12146 12148 28
9719 12146 12149 28
9720 12146 12150 28
9721 12151 12152 28
9722 12151 12153 28
9723 12151 12154 28
9724 12151 12155 28
9725 12156 12157 28
9726 12156 12158 28
9727 12156 12159 28
9728 12156 12160 28
9729 12161 12162 28
9730 12161 12163 28
9731 12161 12164 28
9732 12161 12165 28
9733 12166 12167 28
9734 12166 12168 28
9735 12166 12169 28
9736 12166 12170 28
9737 12171 12172 28
9738 12171 12173 28
9739 12171 12174 28
9740 12171 12175 28
9741 12176 12177 28
9742 12176 12178 28
9743 12176 12179 28
9744 12176 12180 28
9745 12181 12182 28
9746 12181 12183 28
9747 12181 12184 28
9748 12181 12185 28
9749 12186 12187 28
9750 12186 12188 28
9751 12186 12189 28
9752 12186 12190 28
9753 12191 12192 28
9754 12191 12193 28
9755 12191 12194 28
9756 12191 12195 28
9757 12196 12197 28
9758 12196 12198 28
9759 12196 12199 28
9760 12196 12200 28
9761 12201 12202 28
9762 12201 12203 28
9763 12201 12204 28
9764 12201 12205 28
9765 12206 12207 28
9766 12206 12208 28
9767 12206 12209 28
9768 12206 12210 28
9769 12211 12212 28
9770 12211 12213 28
9771 12211 12214 28
9772 12211 12215 28
9773 12216 12217 28
9774 12216 12218 28
9775 12216 12219 28
9776 12216 12220 28
9777 12221 12222 28
9778 12221 12223 28
9779 12221 12224 28
9780 12221 12225 28
9781 12226 12227 28
9782 12226 12228 28
9783 12226 12229 28
9784 12226 12230 28
9785 12231 12232 28
9786 12231 12233 28
9787 12231 12234 28
9788 12231 12235 28
9789 12236 12237 28
9790 12236 12238 28
9791 12236 12239 28
9792 12236 12240 28
9793 12241 12242 28
9794 12241 12243 28
9795 12241 12244 28
9796 12241 12245 28
9797 12246 12247 28
9798 12246 12248 28
9799 12246 12249 28
9800 12246 12250 28
9801 12251 12252 28
9802 12251 12253 28
9803 12251 12254 28
9804 12251 12255 28
9805 12256 12257 28
9806 12256 12258 28
9807 12256 12259 28
9808 12256 12260 28
9809 12261 12262 28
9810 12261 12263 28
9811 12261 12264 28
9812 12261 12265 28
9813 12266 12267 28
9814 12266 12268 28
9815 12266 12269 28
9816 12266 12270 28
9817 12271 12272 28
9818 12271 12273 28
9819 12271 12274 28
9820 12271 12275 28
9821 12276 12277 28
9822 12276 12278 28
9823 12276 12279 28
9824 12276 12280 28
9825 12281 12282 28
9826 12281 12283 28
9827 12281 12284 28
9828 12281 12285 28
9829 12286 12287 28
9830 12286 12288 28
9831 12286 12289 28
9832 12286 12290 28
9833 12291 12292 28
9834 12291 12293 28
9835 12291 12294 28
9836 12291 12295 28
9837 12296 12297 28
9838 12296 12298 28
9839 12296 12299 28
9840 12296 12300 28
9841 12301 12302 28
9842 12301 12303 28
9843 12301 12304 28
9844 12301 12305 28
9845 12306 12307 28
9846 12306 12308 28
9847 12306 12309 28
9848 12306 12310 28
9849 12311 12312 28
9850 12311 12313 28
9851 12311 12314 28
9852 12311 12315 28
9853 12316 12317 28
9854 12316 12318 28
9855 12316 12319 28
9856 12316 12320 28
9857 12321 12322 28
9858 12321 12323 28
9859 12321 12324 28
9860 12321 12325 28
9861 12326 12327 28
9862 12326 12328 28
9863 12326 12329 28
9864 12326 12330 28
9865 12331 12332 28
9866 12331 12333 28
9867 12331 12334 28
9868 12331 12335 28
9869 12336 12337 28
9870 12336 12338 28
9871 12336 12339 28
9872 12336 12340 28
9873 12341 12342 28
9874 12341 12343 28
9875 12341 12344 28
9876 12341 12345 28
9877 12346 12347 28
9878 12346 12348 28
9879 12346 12349 28
9880 12346 12350 28
9881 12351 12352 28
9882 12351 12353 28
9883 12351 12354 28
9884 12351 12355 28
9885 12356 12357 28
9886 12356 12358 28
9887 12356 12359 28
9888 12356 12360 28
9889 12361 12362 28
9890 12361 12363 28
9891 12361 12364 28
9892 12361 12365 28
9893 12366 12367 28
9894 12366 12368 28
9895 12366 12369 28
9896 12366 12370 28
9897 12371 12372 28
9898 12371 12373 28
9899 12371 12374 28
9900 12371 12375 28
9901 12376 12377 28
9902 12376 12378 28
9903 12376 12379 28
9904 12376 12380 28
9905 12381 12382 28
9906 12381 12383 28
9907 12381 12384 28
9908 12381 12385 28
9909 12386 12387 28
9910 12386 12388 28
9911 12386 12389 28
9912 12386 12390 28
9913 12391 12392 28
9914 12391 12393 28
9915 12391 12394 28
9916 12391 12395 28
9917 12396 12397 28
9918 12396 12398 28
9919 12396 12399 28
9920 12396 12400 28
9921 12401 12402 28
9922 12401 12403 28
9923 12401 12404 28
9924 12401 12405 28
9925 12406 12407 28
9926 12406 12408 28
9927 12406 12409 28
9928 12406 12410 28
9929 12411 12412 28
9930 12411 12413 28
9931 12411 12414 28
9932 12411 12415 28
9933 12416 12417 28
9934 12416 12418 28
9935 12416 12419 28
9936 12416 12420 28
9937 12421 12422 28
9938 12421 12423 28
9939 12421 12424 28
9940 12421 12425 28
9941 12426 12427 28
9942 12426 12428 28
9943 12426 12429 28
9944 12426 12430 28
9945 12431 12432 28
9946 12431 12433 28
9947 12431 12434 28
9948 12431 12435 28
9949 12436 12437 28
9950 12436 12438 28
9951 12436 12439 28
9952 12436 12440 28
9953 12441 12442 28
9954 12441 12443 28
9955 12441 12444 28
9956 12441 12445 28
9957 12446 12447 28
9958 12446 12448 28
9959 12446 12449 28
9960 12446 12450 28
9961 12451 12452 28
9962 12451 12453 28
9963 12451 12454 28
9964 12451 12455 28
9965 12456 12457 28
9966 12456 12458 28
9967 12456 12459 28
9968 12456 12460 28
9969 12461 12462 28
9970 12461 12463 28
9971 12461 12464 28
9972 12461 12465 28
9973 12466 12467 28
9974 12466 12468 28
9975 12466 12469 28
9976 12466 12470 28
9977 12471 12472 28
9978 12471 12473 28
9979 12471 12474 28
9980 12471 12475 28
9981 12476 12477 28
9982 12476 12478 28
9983 12476 12479 28
9984 12476 12480 28
9985 12481 12482 28
9986 12481 12483 28
9987 12481 12484 28
9988 12481 12485 28
9989 12486 12487 28
9990 12486 12488 28
9991 12486 12489 28
9992 12486 12490 28
9993 12491 12492 28
9994 12491 12493 28
9995 12491 12494 28
9996 12491 12495 28
9997 12496 12497 28
9998 12496 12498 28
9999 12496 12499 28
10000 12496 12500 28
10001 12501 12502 28
10002 12501 12503 28
10003 12501 12504 28
10004 12501 12505 28
10005 12506 12507 28
10006 12506 12508 28
10007 12506 12509 28
10008 12506 12510 28
10009 12511 12512 28
10010 12511 12513 28
10011 12511 12514 28
10012 12511 12515 28
10013 12516 12517 28
10014 12516 12518 28
10015 12516 12519 28
10016 12516 12520 28
10017 12521 12522 28
10018 12521 12523 28
10019 12521 12524 28
10020 12521 12525 28
10021 12526 12527 28
10022 12526 12528 28
10023 12526 12529 28
10024 12526 12530 28
10025 12531 12532 28
10026 12531 12533 28
10027 12531 12534 28
10028 12531 12535 28
10029 12536 12537 28
10030 12536 12538 28
10031 12536 12539 28
10032 12536 12540 28
10033 12541 12542 28
10034 12541 12543 28
10035 12541 12544 28
10036 12541 12545 28
10037 12546 12547 28
10038 12546 12548 28
10039 12546 12549 28
10040 12546 12550 28
10041 12551 12552 28
10042 12551 12553 28
10043 12551 12554 28
10044 12551 12555 28
10045 12556 12557 28
10046 12556 12558 28
10047 12556 12559 28
10048 12556 12560 28
10049 12561 12562 28
10050 12561 12563 28
10051 12561 12564 28
10052 12561 12565 28
10053 12566 12567 28
10054 12566 12568 28
10055 12566 12569 28
10056 12566 12570 28
10057 12571 12572 28
10058 12571 12573 28
10059 12571 12574 28
10060 12571 12575 28
10061 12576 12577 28
10062 12576 12578 28
10063 12576 12579 28
10064 12576 12580 28
10065 12581 12582 28
10066 12581 12583 28
10067 12581 12584 28
10068 12581 12585 28
10069 12586 12587 28
10070 12586 12588 28
10071 12586 12589 28
10072 12586 12590 28
10073 12591 12592 28
10074 12591 12593 28
10075 12591 12594 28
10076 12591 12595 28
10077 12596 12597 28
10078 12596 12598 28
10079 12596 12599 28
10080 12596 12600 28
10081 12601 12602 28
10082 12601 12603 28
10083 12601 12604 28
10084 12601 12605 28
10085 12606 12607 28
10086 12606 12608 28
10087 12606 12609 28
10088 12606 12610 28
10089 12611 12612 28
10090 12611 12613 28
10091 12611 12614 28
10092 12611 12615 28
10093 12616 12617 28
10094 12616 12618 28
10095 12616 12619 28
10096 12616 12620 28
10097 12621 12622 28
10098 12621 12623 28
10099 12621 12624 28
10100 12621 12625 28
10101 12626 12627 28
10102 12626 12628 28
10103 12626 12629 28
10104 12626 12630 28
10105 12631 12632 28
10106 12631 12633 28
10107 12631 12634 28
10108 12631 12635 28
10109 12636 12637 28
10110 12636 12638 28
10111 12636 12639 28
10112 12636 12640 28
10113 12641 12642 28
10114 12641 12643 28
10115 12641 12644 28
10116 12641 12645 28
10117 12646 12647 28
10118 12646 12648 28
10119 12646 12649 28
10120 12646 12650 28
10121 12651 12652 28
10122 12651 12653 28
10123 12651 12654 28
10124 12651 12655 28
10125 12656 12657 28
10126 12656 12658 28
10127 12656 12659 28
10128 12656 12660 28
10129 12661 12662 28
10130 12661 12663 28
10131 12661 12664 28
10132 12661 12665 28
10133 12666 12667 28
10134 12666 12668 28
10135 12666 12669 28
10136 12666 12670 28
10137 12671 12672 28
10138 12671 12673 28
10139 12671 12674 28
10140 12671 12675 28
10141 12676 12677 28
10142 12676 12678 28
10143 12676 12679 28
10144 12676 12680 28
10145 12681 12682 28
10146 12681 12683 28
10147 12681 12684 28
10148 12681 12685 28
10149 12686 12687 28
10150 12686 12688 28
10151 12686 12689 28
10152 12686 12690 28
10153 12691 12692 28
10154 12691 12693 28
10155 12691 12694 28
10156 12691 12695 28
10157 12696 12697 28
10158 12696 12698 28
10159 12696 12699 28
10160 12696 12700 28
10161 12701 12702 28
10162 12701 12703 28
10163 12701 12704 28
10164 12701 12705 28
10165 12706 12707 28
10166 12706 12708 28
10167 12706 12709 28
10168 12706 12710 28
10169 12711 12712 28
10170 12711 12713 28
10171 12711 12714 28
10172 12711 12715 28
10173 12716 12717 28
10174 12716 12718 28
10175 12716 12719 28
10176 12716 12720 28
10177 12721 12722 28
10178 12721 12723 28
10179 12721 12724 28
10180 12721 12725 28
10181 12726 12727 28
10182 12726 12728 28
10183 12726 12729 28
10184 12726 12730 28
10185 12731 12732 28
10186 12731 12733 28
10187 12731 12734 28
10188 12731 12735 28
10189 12736 12737 28
10190 12736 12738 28
10191 12736 12739 28
10192 12736 12740 28
10193 12741 12742 28
10194 12741 12743 28
10195 12741 12744 28
10196 12741 12745 28
10197 12746 12747 28
10198 12746 12748 28
10199 12746 12749 28
10200 12746 12750 28
10201 12751 12752 28
10202 12751 12753 28
10203 12751 12754 28
10204 12751 12755 28
10205 12756 12757 28
10206 12756 12758 28
10207 12756 12759 28
10208 12756 12760 28
10209 12761 12762 28
10210 12761 12763 28
10211 12761 12764 28
10212 12761 12765 28
10213 12766 12767 28
10214 12766 12768 28
10215 12766 12769 28
10216 12766 12770 28
10217 12771 12772 28
10218 12771 12773 28
10219 12771 12774 28
10220 12771 12775 28
10221 12776 12777 28
10222 12776 12778 28
10223 12776 12779 28
10224 12776 12780 28
10225 12781 12782 28
10226 12781 12783 28
10227 12781 12784 28
10228 12781 12785 28
10229 12786 12787 28
10230 12786 12788 28
10231 12786 12789 28
10232 12786 12790 28
10233 12791 12792 28
10234 12791 12793 28
10235 12791 12794 28
10236 12791 12795 28
10237 12796 12797 28
10238 12796 12798 28
10239 12796 12799 28
10240 12796 12800 28
10241 12801 12802 28
10242 12801 12803 28
10243 12801 12804 28
10244 12801 12805 28
10245 12806 12807 28
10246 12806 12808 28
10247 12806 12809 28
10248 12806 12810 28
10249 12811 12812 28
10250 12811 12813 28
10251 12811 12814 28
10252 12811 12815 28
10253 12816 12817 28
10254 12816 12818 28
10255 12816 12819 28
10256 12816 12820 28
10257 12821 12822 28
10258 12821 12823 28
10259 12821 12824 28
10260 12821 12825 28
10261 12826 12827 28
10262 12826 12828 28
10263 12826 12829 28
10264 12826 12830 28
10265 12831 12832 28
10266 12831 12833 28
10267 12831 12834 28
10268 12831 12835 28
10269 12836 12837 28
10270 12836 12838 28
10271 12836 12839 28
10272 12836 12840 28
10273 12841 12842 28
10274 12841 12843 28
10275 12841 12844 28
10276 12841 12845 28
10277 12846 12847 28
10278 12846 12848 28
10279 12846 12849 28
10280 12846 12850 28
10281 12851 12852 28
10282 12851 12853 28
10283 12851 12854 28
10284 12851 12855 28
10285 12856 12857 28
10286 12856 12858 28
10287 12856 12859 28
10288 12856 12860 28
10289 12861 12862 28
10290 12861 12863 28
10291 12861 12864 28
10292 12861 12865 28
10293 12866 12867 28
10294 12866 12868 28
10295 12866 12869 28
10296 12866 12870 28
10297 12871 12872 28
10298 12871 12873 28
10299 12871 12874 28
10300 12871 12875 28
10301 12876 12877 28
10302 12876 12878 28
10303 12876 12879 28
10304 12876 12880 28
10305 12881 12882 28
10306 12881 12883 28
10307 12881 12884 28
10308 12881 12885 28
10309 12886 12887 28
10310 12886 12888 28
10311 12886 12889 28
10312 12886 12890 28
10313 12891 12892 28
10314 12891 12893 28
10315 12891 12894 28
10316 12891 12895 28
10317 12896 12897 28
10318 12896 12898 28
10319 12896 12899 28
10320 12896 12900 28
10321 12901 12902 28
10322 12901 12903 28
10323 12901 12904 28
10324 12901 12905 28
10325 12906 12907 28
10326 12906 12908 28
10327 12906 12909 28
10328 12906 12910 28
10329 12911 12912 28
10330 12911 12913 28
10331 12911 12914 28
10332 12911 12915 28
10333 12916 12917 28
10334 12916 12918 28
10335 12916 12919 28
10336 12916 12920 28
10337 12921 12922 28
10338 12921 12923 28
10339 12921 12924 28
10340 12921 12925 28
10341 12926 12927 28
10342 12926 12928 28
10343 12926 12929 28
10344 12926 12930 28
10345 12931 12932 28
10346 12931 12933 28
10347 12931 12934 28
10348 12931 12935 28
10349 12936 12937 28
10350 12936 12938 28
10351 12936 12939 28
10352 12936 12940 28
10353 12941 12942 28
10354 12941 12943 28
10355 12941 12944 28
10356 12941 12945 28
10357 12946 12947 28
10358 12946 12948 28
10359 12946 12949 28
10360 12946 12950 28
10361 12951 12952 28
10362 12951 12953 28
10363 12951 12954 28
10364 12951 12955 28
10365 12956 12957 28
10366 12956 12958 28
10367 12956 12959 28
10368 12956 12960 28
10369 12961 12962 28
10370 12961 12963 28
10371 12961 12964 28
10372 12961 12965 28
10373 12966 12967 28
10374 12966 12968 28
10375 12966 12969 28
10376 12966 12970 28
10377 12971 12972 28
10378 12971 12973 28
10379 12971 12974 28
10380 12971 12975 28
10381 12976 12977 28
10382 12976 12978 28
10383 12976 12979 28
10384 12976 12980 28
10385 12981 12982 28
10386 12981 12983 28
10387 12981 12984 28
10388 12981 12985 28
10389 12986 12987 28
10390 12986 12988 28
10391 12986 12989 28
10392 12986 12990 28
10393 12991 12992 28
10394 12991 12993 28
10395 12991 12994 28
10396 12991 12995 28
10397 12996 12997 28
10398 12996 12998 28
10399 12996 12999 28
10400 12996 13000 28
10401 13001 13002 28
10402 13001 13003 28
10403 13001 13004 28
10404 13001 13005 28
10405 13006 13007 28
10406 13006 13008 28
10407 13006 13009 28
10408 13006 13010 28
10409 13011 13012 28
10410 13011 13013 28
10411 13011 13014 28
10412 13011 13015 28
10413 13016 13017 28
10414 13016 13018 28
10415 13016 13019 28
10416 13016 13020 28
10417 13021 13022 28
10418 13021 13023 28
10419 13021 13024 28
10420 13021 13025 28
10421 13026 13027 28
10422 13026 13028 28
10423 13026 13029 28
10424 13026 13030 28
10425 13031 13032 28
10426 13031 13033 28
10427 13031 13034 28
10428 13031 13035 28
10429 13036 13037 28
10430 13036 13038 28
10431 13036 13039 28
10432 13036 13040 28
10433 13041 13042 28
10434 13041 13043 28
10435 13041 13044 28
10436 13041 13045 28
10437 13046 13047 28
10438 13046 13048 28
10439 13046 13049 28
10440 13046 13050 28
10441 13051 13052 28
10442 13051 13053 28
10443 13051 13054 28
10444 13051 13055 28
10445 13056 13057 28
10446 13056 13058 28
10447 13056 13059 28
10448 13056 13060 28
10449 13061 13062 28
10450 13061 13063 28
10451 13061 13064 28
10452 13061 13065 28
10453 13066 13067 28
10454 13066 13068 28
10455 13066 13069 28
10456 13066 13070 28
10457 13071 13072 28
10458 13071 13073 28
10459 13071 13074 28
10460 13071 13075 28
10461 13076 13077 28
10462 13076 13078 28
10463 13076 13079 28
10464 13076 13080 28
10465 13081 13082 28
10466 13081 13083 28
10467 13081 13084 28
10468 13081 13085 28
10469 13086 13087 28
10470 13086 13088 28
10471 13086 13089 28
10472 13086 13090 28
10473 13091 13092 28
10474 13091 13093 28
10475 13091 13094 28
10476 13091 13095 28
10477 13096 13097 28
10478 13096 13098 28
10479 13096 13099 28
10480 13096 13100 28
10481 13101 13102 28
10482 13101 13103 28
10483 13101 13104 28
10484 13101 13105 28
10485 13106 13107 28
10486 13106 13108 28
10487 13106 13109 28
10488 13106 13110 28
10489 13111 13112 28
10490 13111 13113 28
10491 13111 13114 28
10492 13111 13115 28
10493 13116 13117 28
10494 13116 13118 28
10495 13116 13119 28
10496 13116 13120 28
10497 13121 13122 28
10498 13121 13123 28
10499 13121 13124 28
10500 13121 13125 28
10501 13126 13127 28
10502 13126 13128 28
10503 13126 13129 28
10504 13126 13130 28
10505 13131 13132 28
10506 13131 13133 28
10507 13131 13134 28
10508 13131 13135 28
10509 13136 13137 28
10510 13136 13138 28
10511 13136 13139 28
10512 13136 13140 28
10513 13141 13142 28
10514 13141 13143 28
10515 13141 13144 28
10516 13141 13145 28
10517 13146 13147 28
10518 13146 13148 28
10519 13146 13149 28
10520 13146 13150 28
10521 13151 13152 28
10522 13151 13153 28
10523 13151 13154 28
10524 13151 13155 28
10525 13156 13157 28
10526 13156 13158 28
10527 13156 13159 28
10528 13156 13160 28
10529 13161 13162 28
10530 13161 13163 28
10531 13161 13164 28
10532 13161 13165 28
10533 13166 13167 28
10534 13166 13168 28
10535 13166 13169 28
10536 13166 13170 28
10537 13171 13172 28
10538 13171 13173 28
10539 13171 13174 28
10540 13171 13175 28
10541 13176 13177 28
10542 13176 13178 28
10543 13176 13179 28
10544 13176 13180 28
10545 13181 13182 28
10546 13181 13183 28
10547 13181 13184 28
10548 13181 13185 28
10549 13186 13187 28
10550 13186 13188 28
10551 13186 13189 28
10552 13186 13190 28
10553 13191 13192 28
10554 13191 13193 28
10555 13191 13194 28
10556 13191 13195 28
10557 13196 13197 28
10558 13196 13198 28
10559 13196 13199 28
10560 13196 13200 28
10561 13201 13202 28
10562 13201 13203 28
10563 13201 13204 28
10564 13201 13205 28
10565 13206 13207 28
10566 13206 13208 28
10567 13206 13209 28
10568 13206 13210 28
10569 13211 13212 28
10570 13211 13213 28
10571 13211 13214 28
10572 13211 13215 28
10573 13216 13217 28
10574 13216 13218 28
10575 13216 13219 28
10576 13216 13220 28
10577 13221 13222 28
10578 13221 13223 28
10579 13221 13224 28
10580 13221 13225 28
10581 13226 13227 28
10582 13226 13228 28
10583 13226 13229 28
10584 13226 13230 28
10585 13231 13232 28
10586 13231 13233 28
10587 13231 13234 28
10588 13231 13235 28
10589 13236 13237 28
10590 13236 13238 28
10591 13236 13239 28
10592 13236 13240 28
10593 13241 13242 28
10594 13241 13243 28
10595 13241 13244 28
10596 13241 13245 28
10597 13246 13247 28
10598 13246 13248 28
10599 13246 13249 28
10600 13246 13250 28
10601 13251 13252 28
10602 13251 13253 28
10603 13251 13254 28
10604 13251 13255 28
10605 13256 13257 28
10606 13256 13258 28
10607 13256 13259 28
10608 13256 13260 28
10609 13261 13262 28
10610 13261 13263 28
10611 13261 13264 28
10612 13261 13265 28
10613 13266 13267 28
10614 13266 13268 28
10615 13266 13269 28
10616 13266 13270 28
10617 13271 13272 28
10618 13271 13273 28
10619 13271 13274 28
10620 13271 13275 28
10621 13276 13277 28
10622 13276 13278 28
10623 13276 13279 28
10624 13276 13280 28
10625 13281 13282 28
10626 13281 13283 28
10627 13281 13284 28
10628 13281 13285 28
10629 13286 13287 28
10630 13286 13288 28
10631 13286 13289 28
10632 13286 13290 28
10633 13291 13292 28
10634 13291 13293 28
10635 13291 13294 28
10636 13291 13295 28
10637 13296 13297 28
10638 13296 13298 28
10639 13296 13299 28
10640 13296 13300 28
10641 13301 13302 28
10642 13301 13303 28
10643 13301 13304 28
10644 13301 13305 28
10645 13306 13307 28
10646 13306 13308 28
10647 13306 13309 28
10648 13306 13310 28
10649 13311 13312 28
10650 13311 13313 28
10651 13311 13314 28
10652 13311 13315 28
10653 13316 13317 28
10654 13316 13318 28
10655 13316 13319 28
10656 13316 13320 28
10657 13321 13322 28
10658 13321 13323 28
10659 13321 13324 28
10660 13321 13325 28
10661 13326 13327 28
10662 13326 13328 28
10663 13326 13329 28
10664 13326 13330 28
10665 13331 13332 28
10666 13331 13333 28
10667 13331 13334 28
10668 13331 13335 28
10669 13336 13337 28
10670 13336 13338 28
10671 13336 13339 28
10672 13336 13340 28
10673 13341 13342 28
10674 13341 13343 28
10675 13341 13344 28
10676 13341 13345 28
10677 13346 13347 28
10678 13346 13348 28
10679 13346 13349 28
10680 13346 13350 28
10681 13351 13352 28
10682 13351 13353 28
10683 13351 13354 28
10684 13351 13355 28
10685 13356 13357 28
10686 13356 13358 28
10687 13356 13359 28
10688 13356 13360 28
10689 13361 13362 28
10690 13361 13363 28
10691 13361 13364 28
10692 13361 13365 28
10693 13366 13367 28
10694 13366 13368 28
10695 13366 13369 28
10696 13366 13370 28
10697 13371 13372 28
10698 13371 13373 28
10699 13371 13374 28
10700 13371 13375 28
10701 13376 13377 28
10702 13376 13378 28
10703 13376 13379 28
10704 13376 13380 28
10705 13381 13382 28
10706 13381 13383 28
10707 13381 13384 28
10708 13381 13385 28
10709 13386 13387 28
10710 13386 13388 28
10711 13386 13389 28
10712 13386 13390 28
10713 13391 13392 28
10714 13391 13393 28
10715 13391 13394 28
10716 13391 13395 28
10717 13396 13397 28
10718 13396 13398 28
10719 13396 13399 28
10720 13396 13400 28
10721 13401 13402 28
10722 13401 13403 28
10723 13401 13404 28
10724 13401 13405 28
10725 13406 13407 28
10726 13406 13408 28
10727 13406 13409 28
10728 13406 13410 28
10729 13411 13412 28
10730 13411 13413 28
10731 13411 13414 28
10732 13411 13415 28
10733 13416 13417 28
10734 13416 13418 28
10735 13416 13419 28
10736 13416 13420 28
10737 13421 13422 28
10738 13421 13423 28
10739 13421 13424 28
10740 13421 13425 28
10741 13426 13427 28
10742 13426 13428 28
10743 13426 13429 28
10744 13426 13430 28
10745 13431 13432 28
10746 13431 13433 28
10747 13431 13434 28
10748 13431 13435 28
10749 13436 13437 28
10750 13436 13438 28
10751 13436 13439 28
10752 13436 13440 28
10753 13441 13442 28
10754 13441 13443 28
10755 13441 13444 28
10756 13441 13445 28
10757 13446 13447 28
10758 13446 13448 28
10759 13446 13449 28
10760 13446 13450 28
10761 13451 13452 28
10762 13451 13453 28
10763 13451 13454 28
10764 13451 13455 28
10765 13456 13457 28
10766 13456 13458 28
10767 13456 13459 28
10768 13456 13460 28
10769 13461 13462 28
10770 13461 13463 28
10771 13461 13464 28
10772 13461 13465 28
10773 13466 13467 28
10774 13466 13468 28
10775 13466 13469 28
10776 13466 13470 28
10777 13471 13472 28
10778 13471 13473 28
10779 13471 13474 28
10780 13471 13475 28
10781 13476 13477 28
10782 13476 13478 28
10783 13476 13479 28
10784 13476 13480 28
10785 13481 13482 28
10786 13481 13483 28
10787 13481 13484 28
10788 13481 13485 28
10789 13486 13487 28
10790 13486 13488 28
10791 13486 13489 28
10792 13486 13490 28
10793 13491 13492 28
10794 13491 13493 28
10795 13491 13494 28
10796 13491 13495 28
10797 13496 13497 28
10798 13496 13498 28
10799 13496 13499 28
10800 13496 13500 28
10801 13501 13502 28
10802 13501 13503 28
10803 13501 13504 28
10804 13501 13505 28
10805 13506 13507 28
10806 13506 13508 28
10807 13506 13509 28
10808 13506 13510 28
10809 13511 13512 28
10810 13511 13513 28
10811 13511 13514 28
10812 13511 13515 28
10813 13516 13517 28
10814 13516 13518 28
10815 13516 13519 28
10816 13516 13520 28
10817 13521 13522 28
10818 13521 13523 28
10819 13521 13524 28
10820 13521 13525 28
10821 13526 13527 28
10822 13526 13528 28
10823 13526 13529 28
10824 13526 13530 28
10825 13531 13532 28
10826 13531 13533 28
10827 13531 13534 28
10828 13531 13535 28
10829 13536 13537 28
10830 13536 13538 28
10831 13536 13539 28
10832 13536 13540 28
10833 13541 13542 28
10834 13541 13543 28
10835 13541 13544 28
10836 13541 13545 28
10837 13546 13547 28
10838 13546 13548 28
10839 13546 13549 28
10840 13546 13550 28
10841 13551 13552 28
10842 13551 13553 28
10843 13551 13554 28
10844 13551 13555 28
10845 13556 13557 28
10846 13556 13558 28
10847 13556 13559 28
10848 13556 13560 28
10849 13561 13562 28
10850 13561 13563 28
10851 13561 13564 28
10852 13561 13565 28
10853 13566 13567 28
10854 13566 13568 28
10855 13566 13569 28
10856 13566 13570 28
10857 13571 13572 28
10858 13571 13573 28
10859 13571 13574 28
10860 13571 13575 28
10861 13576 13577 28
10862 13576 13578 28
10863 13576 13579 28
10864 13576 13580 28
10865 13581 13582 28
10866 13581 13583 28
10867 13581 13584 28
10868 13581 13585 28
10869 13586 13587 28
10870 13586 13588 28
10871 13586 13589 28
10872 13586 13590 28
10873 13591 13592 28
10874 13591 13593 28
10875 13591 13594 28
10876 13591 13595 28
10877 13596 13597 28
10878 13596 13598 28
10879 13596 13599 28
10880 13596 13600 28
10881 13601 13602 28
10882 13601 13603 28
10883 13601 13604 28
10884 13601 13605 28
10885 13606 13607 28
10886 13606 13608 28
10887 13606 13609 28
10888 13606 13610 28
10889 13611 13612 28
10890 13611 13613 28
10891 13611 13614 28
10892 13611 13615 28
10893 13616 13617 28
10894 13616 13618 28
10895 13616 13619 28
10896 13616 13620 28
10897 13621 13622 28
10898 13621 13623 28
10899 13621 13624 28
10900 13621 13625 28
10901 13626 13627 28
10902 13626 13628 28
10903 13626 13629 28
10904 13626 13630 28
10905 13631 13632 28
10906 13631 13633 28
10907 13631 13634 28
10908 13631 13635 28
10909 13636 13637 28
10910 13636 13638 28
10911 13636 13639 28
10912 13636 13640 28
10913 13641 13642 28
10914 13641 13643 28
10915 13641 13644 28
10916 13641 13645 28
10917 13646 13647 28
10918 13646 13648 28
10919 13646 13649 28
10920 13646 13650 28
10921 13651 13652 28
10922 13651 13653 28
10923 13651 13654 28
10924 13651 13655 28
10925 13656 13657 28
10926 13656 13658 28
10927 13656 13659 28
10928 13656 13660 28
10929 13661 13662 28
10930 13661 13663 28
10931 13661 13664 28
10932 13661 13665 28
10933 13666 13667 28
10934 13666 13668 28
10935 13666 13669 28
10936 13666 13670 28
10937 13671 13672 28
10938 13671 13673 28
10939 13671 13674 28
10940 13671 13675 28
10941 13676 13677 28
10942 13676 13678 28
10943 13676 13679 28
10944 13676 13680 28
10945 13681 13682 28
10946 13681 13683 28
10947 13681 13684 28
10948 13681 13685 28
10949 13686 13687 28
10950 13686 13688 28
10951 13686 13689 28
10952 13686 13690 28
10953 13691 13692 28
10954 13691 13693 28
10955 13691 13694 28
10956 13691 13695 28
10957 13696 13697 28
10958 13696 13698 28
10959 13696 13699 28
10960 13696 13700 28
10961 13701 13702 28
10962 13701 13703 28
10963 13701 13704 28
10964 13701 13705 28
10965 13706 13707 28
10966 13706 13708 28
10967 13706 13709 28
10968 13706 13710 28
10969 13711 13712 28
10970 13711 13713 28
10971 13711 13714 28
10972 13711 13715 28
10973 13716 13717 28
10974 13716 13718 28
10975 13716 13719 28
10976 13716 13720 28
10977 13721 13722 28
10978 13721 13723 28
10979 13721 13724 28
10980 13721 13725 28
10981 13726 13727 28
10982 13726 13728 28
10983 13726 13729 28
10984 13726 13730 28
10985 13731 13732 28
10986 13731 13733 28
10987 13731 13734 28
10988 13731 13735 28
10989 13736 13737 28
10990 13736 13738 28
10991 13736 13739 28
10992 13736 13740 28
10993 13741 13742 28
10994 13741 13743 28
10995 13741 13744 28
10996 13741 13745 28
10997 13746 13747 28
10998 13746 13748 28
10999 13746 13749 28
11000 13746 13750 28
11001 13751 13752 28
11002 13751 13753 28
11003 13751 13754 28
11004 13751 13755 28
11005 13756 13757 28
11006 13756 13758 28
11007 13756 13759 28
11008 13756 13760 28
11009 13761 13762 28
11010 13761 13763 28
11011 13761 13764 28
11012 13761 13765 28
11013 13766 13767 28
11014 13766 13768 28
11015 13766 13769 28
11016 13766 13770 28
11017 13771 13772 28
11018 13771 13773 28
11019 13771 13774 28
11020 13771 13775 28
11021 13776 13777 28
11022 13776 13778 28
11023 13776 13779 28
11024 13776 13780 28
11025 13781 13782 28
11026 13781 13783 28
11027 13781 13784 28
11028 13781 13785 28
11029 13786 13787 28
11030 13786 13788 28
11031 13786 13789 28
11032 13786 13790 28
11033 13791 13792 28
11034 13791 13793 28
11035 13791 13794 28
11036 13791 13795 28
11037 13796 13797 28
11038 13796 13798 28
11039 13796 13799 28
11040 13796 13800 28
11041 13801 13802 28
11042 13801 13803 28
11043 13801 13804 28
11044 13801 13805 28
11045 13806 13807 28
11046 13806 13808 28
11047 13806 13809 28
11048 13806 13810 28
11049 13811 13812 28
11050 13811 13813 28
11051 13811 13814 28
11052 13811 13815 28
11053 13816 13817 28
11054 13816 13818 28
11055 13816 13819 28
11056 13816 13820 28
11057 13821 13822 28
11058 13821 13823 28
11059 13821 13824 28
11060 13821 13825 28
11061 13826 13827 28
11062 13826 13828 28
11063 13826 13829 28
11064 13826 13830 28
11065 13831 13832 28
11066 13831 13833 28
11067 13831 13834 28
11068 13831 13835 28
11069 13836 13837 28
11070 13836 13838 28
11071 13836 13839 28
11072 13836 13840 28
11073 13841 13842 28
11074 13841 13843 28
11075 13841 13844 28
11076 13841 13845 28
11077 13846 13847 28
11078 13846 13848 28
11079 13846 13849 28
11080 13846 13850 28
11081 13851 13852 28
11082 13851 13853 28
11083 13851 13854 28
11084 13851 13855 28
11085 13856 13857 28
11086 13856 13858 28
11087 13856 13859 28
11088 13856 13860 28
11089 13861 13862 28
11090 13861 13863 28
11091 13861 13864 28
11092 13861 13865 28
11093 13866 13867 28
11094 13866 13868 28
11095 13866 13869 28
11096 13866 13870 28
11097 13871 13872 28
11098 13871 13873 28
11099 13871 13874 28
11100 13871 13875 28
11101 13876 13877 28
11102 13876 13878 28
11103 13876 13879 28
11104 13876 13880 28
11105 13881 13882 28
11106 13881 13883 28
11107 13881 13884 28
11108 13881 13885 28
11109 13886 13887 28
11110 13886 13888 28
11111 13886 13889 28
11112 13886 13890 28
11113 13891 13892 28
11114 13891 13893 28
11115 13891 13894 28
11116 13891 13895 28
11117 13896 13897 28
11118 13896 13898 28
11119 13896 13899 28
11120 13896 13900 28
11121 13901 13902 28
11122 13901 13903 28
11123 13901 13904 28
11124 13901 13905 28
11125 13906 13907 28
11126 13906 13908 28
11127 13906 13909 28
11128 13906 13910 28
11129 13911 13912 28
11130 13911 13913 28
11131 13911 13914 28
11132 13911 13915 28
11133 13916 13917 28
11134 13916 13918 28
11135 13916 13919 28
11136 13916 13920 28
11137 13921 13922 28
11138 13921 13923 28
11139 13921 13924 28
11140 13921 13925 28
11141 13926 13927 28
11142 13926 13928 28
11143 13926 13929 28
11144 13926 13930 28
11145 13931 13932 28
11146 13931 13933 28
11147 13931 13934 28
11148 13931 13935 28
11149 13936 13937 28
11150 13936 13938 28
11151 13936 13939 28
11152 13936 13940 28
11153 13941 13942 28
11154 13941 13943 28
11155 13941 13944 28
11156 13941 13945 28
11157 13946 13947 28
11158 13946 13948 28
11159 13946 13949 28
11160 13946 13950 28
11161 13951 13952 28
11162 13951 13953 28
11163 13951 13954 28
11164 13951 13955 28
11165 13956 13957 28
11166 13956 13958 28
11167 13956 13959 28
11168 13956 13960 28
11169 13961 13962 28
11170 13961 13963 28
11171 13961 13964 28
11172 13961 13965 28
11173 13966 13967 28
11174 13966 13968 28
11175 13966 13969 28
11176 13966 13970 28
11177 13971 13972 28
11178 13971 13973 28
11179 13971 13974 28
11180 13971 13975 28
11181 13976 13977 28
11182 13976 13978 28
11183 13976 13979 28
11184 13976 13980 28
11185 13981 13982 28
11186 13981 13983 28
11187 13981 13984 28
11188 13981 13985 28
11189 13986 13987 28
11190 13986 13988 28
11191 13986 13989 28
11192 13986 13990 28
11193 13991 13992 28
11194 13991 13993 28
11195 13991 13994 28
11196 13991 13995 28
11197 13996 13997 28
11198 13996 13998 28
11199 13996 13999 28
11200 13996 14000 28
11201 14001 14002 28
11202 14001 14003 28
11203 14001 14004 28
11204 14001 14005 28
11205 14006 14007 28
11206 14006 14008 28
11207 14006 14009 28
11208 14006 14010 28
11209 14011 14012 28
11210 14011 14013 28
11211 14011 14014 28
11212 14011 14015 28
11213 14016 14017 28
11214 14016 14018 28
11215 14016 14019 28
11216 14016 14020 28
11217 14021 14022 28
11218 14021 14023 28
11219 14021 14024 28
11220 14021 14025 28
11221 14026 14027 28
11222 14026 14028 28
11223 14026 14029 28
11224 14026 14030 28
11225 14031 14032 28
11226 14031 14033 28
11227 14031 14034 28
11228 14031 14035 28
11229 14036 14037 28
11230 14036 14038 28
11231 14036 14039 28
11232 14036 14040 28
11233 14041 14042 28
11234 14041 14043 28
11235 14041 14044 28
11236 14041 14045 28
11237 14046 14047 28
11238 14046 14048 28
11239 14046 14049 28
11240 14046 14050 28
11241 14051 14052 28
11242 14051 14053 28
11243 14051 14054 28
11244 14051 14055 28
11245 14056 14057 28
11246 14056 14058 28
11247 14056 14059 28
11248 14056 14060 28
11249 14061 14062 28
11250 14061 14063 28
11251 14061 14064 28
11252 14061 14065 28
11253 14066 14067 28
11254 14066 14068 28
11255 14066 14069 28
11256 14066 14070 28
11257 14071 14072 28
11258 14071 14073 28
11259 14071 14074 28
11260 14071 14075 28
11261 14076 14077 28
11262 14076 14078 28
11263 14076 14079 28
11264 14076 14080 28
11265 14081 14082 28
11266 14081 14083 28
11267 14081 14084 28
11268 14081 14085 28
11269 14086 14087 28
11270 14086 14088 28
11271 14086 14089 28
11272 14086 14090 28
11273 14091 14092 28
11274 14091 14093 28
11275 14091 14094 28
11276 14091 14095 28
11277 14096 14097 28
11278 14096 14098 28
11279 14096 14099 28
11280 14096 14100 28
11281 14101 14102 28
11282 14101 14103 28
11283 14101 14104 28
11284 14101 14105 28
11285 14106 14107 28
11286 14106 14108 28
11287 14106 14109 28
11288 14106 14110 28
11289 14111 14112 28
11290 14111 14113 28
11291 14111 14114 28
11292 14111 14115 28
11293 14116 14117 28
11294 14116 14118 28
11295 14116 14119 28
11296 14116 14120 28
11297 14121 14122 28
11298 14121 14123 28
11299 14121 14124 28
11300 14121 14125 28
11301 14126 14127 28
11302 14126 14128 28
11303 14126 14129 28
11304 14126 14130 28
11305 14131 14132 28
11306 14131 14133 28
11307 14131 14134 28
11308 14131 14135 28
11309 14136 14137 28
11310 14136 14138 28
11311 14136 14139 28
11312 14136 14140 28
11313 14141 14142 28
11314 14141 14143 28
11315 14141 14144 28
11316 14141 14145 28
11317 14146 14147 28
11318 14146 14148 28
11319 14146 14149 28
11320 14146 14150 28
11321 14151 14152 28
11322 14151 14153 28
11323 14151 14154 28
11324 14151 14155 28
11325 14156 14157 28
11326 14156 14158 28
11327 14156 14159 28
11328 14156 14160 28
11329 14161 14162 28
11330 14161 14163 28
11331 14161 14164 28
11332 14161 14165 28
11333 14166 14167 28
11334 14166 14168 28
11335 14166 14169 28
11336 14166 14170 28
11337 14171 14172 28
11338 14171 14173 28
11339 14171 14174 28
11340 14171 14175 28
11341 14176 14177 28
11342 14176 14178 28
11343 14176 14179 28
11344 14176 14180 28
11345 14181 14182 28
11346 14181 14183 28
11347 14181 14184 28
11348 14181 14185 28
11349 14186 14187 28
11350 14186 14188 28
11351 14186 14189 28
11352 14186 14190 28
11353 14191 14192 28
11354 14191 14193 28
11355 14191 14194 28
11356 14191 14195 28
11357 14196 14197 28
11358 14196 14198 28
11359 14196 14199 28
11360 14196 14200 28
11361 14201 14202 28
11362 14201 14203 28
11363 14201 14204 28
11364 14201 14205 28
11365 14206 14207 28
11366 14206 14208 28
11367 14206 14209 28
11368 14206 14210 28
11369 14211 14212 28
11370 14211 14213 28
11371 14211 14214 28
11372 14211 14215 28
11373 14216 14217 28
11374 14216 14218 28
11375 14216 14219 28
11376 14216 14220 28
11377 14221 14222 28
11378 14221 14223 28
11379 14221 14224 28
11380 14221 14225 28
11381 14226 14227 28
11382 14226 14228 28
11383 14226 14229 28
11384 14226 14230 28
11385 14231 14232 28
11386 14231 14233 28
11387 14231 14234 28
11388 14231 14235 28
11389 14236 14237 28
11390 14236 14238 28
11391 14236 14239 28
11392 14236 14240 28
11393 14241 14242 28
11394 14241 14243 28
11395 14241 14244 28
11396 14241 14245 28
11397 14246 14247 28
11398 14246 14248 28
11399 14246 14249 28
11400 14246 14250 28
11401 14251 14252 28
11402 14251 14253 28
11403 14251 14254 28
11404 14251 14255 28
11405 14256 14257 28
11406 14256 14258 28
11407 14256 14259 28
11408 14256 14260 28
11409 14261 14262 28
11410 14261 14263 28
11411 14261 14264 28
11412 14261 14265 28
11413 14266 14267 28
11414 14266 14268 28
11415 14266 14269 28
11416 14266 14270 28
11417 14271 14272 28
11418 14271 14273 28
11419 14271 14274 28
11420 14271 14275 28
11421 14276 14277 28
11422 14276 14278 28
11423 14276 14279 28
11424 14276 14280 28
11425 14281 14282 28
11426 14281 14283 28
11427 14281 14284 28
11428 14281 14285 28
11429 14286 14287 28
11430 14286 14288 28
11431 14286 14289 28
11432 14286 14290 28
11433 14291 14292 28
11434 14291 14293 28
11435 14291 14294 28
11436 14291 14295 28
11437 14296 14297 28
11438 14296 14298 28
11439 14296 14299 28
11440 14296 14300 28
11441 14301 14302 28
11442 14301 14303 28
11443 14301 14304 28
11444 14301 14305 28
11445 14306 14307 28
11446 14306 14308 28
11447 14306 14309 28
11448 14306 14310 28
11449 14311 14312 28
11450 14311 14313 28
11451 14311 14314 28
11452 14311 14315 28
11453 14316 14317 28
11454 14316 14318 28
11455 14316 14319 28
11456 14316 14320 28
11457 14321 14322 28
11458 14321 14323 28
11459 14321 14324 28
11460 14321 14325 28
11461 14326 14327 28
11462 14326 14328 28
11463 14326 14329 28
11464 14326 14330 28
11465 14331 14332 28
11466 14331 14333 28
11467 14331 14334 28
11468 14331 14335 28
11469 14336 14337 28
11470 14336 14338 28
11471 14336 14339 28
11472 14336 14340 28
11473 14341 14342 28
11474 14341 14343 28
11475 14341 14344 28
11476 14341 14345 28
11477 14346 14347 28
11478 14346 14348 28
11479 14346 14349 28
11480 14346 14350 28
11481 14351 14352 28
11482 14351 14353 28
11483 14351 14354 28
11484 14351 14355 28
11485 14356 14357 28
11486 14356 14358 28
11487 14356 14359 28
11488 14356 14360 28
11489 14361 14362 28
11490 14361 14363 28
11491 14361 14364 28
11492 14361 14365 28
11493 14366 14367 28
11494 14366 14368 28
11495 14366 14369 28
11496 14366 14370 28
11497 14371 14372 28
11498 14371 14373 28
11499 14371 14374 28
11500 14371 14375 28
11501 14376 14377 28
11502 14376 14378 28
11503 14376 14379 28
11504 14376 14380 28
11505 14381 14382 28
11506 14381 14383 28
11507 14381 14384 28
11508 14381 14385 28
11509 14386 14387 28
11510 14386 14388 28
11511 14386 14389 28
11512 14386 14390 28
11513 14391 14392 28
11514 14391 14393 28
11515 14391 14394 28
11516 14391 14395 28
11517 14396 14397 28
11518 14396 14398 28
11519 14396 14399 28
11520 14396 14400 28
11521 14401 14402 28
11522 14401 14403 28
11523 14401 14404 28
11524 14401 14405 28
11525 14406 14407 28
11526 14406 14408 28
11527 14406 14409 28
11528 14406 14410 28
11529 14411 14412 28
11530 14411 14413 28
11531 14411 14414 28
11532 14411 14415 28
11533 14416 14417 28
11534 14416 14418 28
11535 14416 14419 28
11536 14416 14420 28
11537 14421 14422 28
11538 14421 14423 28
11539 14421 14424 28
11540 14421 14425 28
11541 14426 14427 28
11542 14426 14428 28
11543 14426 14429 28
11544 14426 14430 28
11545 14431 14432 28
11546 14431 14433 28
11547 14431 14434 28
11548 14431 14435 28
11549 14436 14437 28
11550 14436 14438 28
11551 14436 14439 28
11552 14436 14440 28
11553 14441 14442 28
11554 14441 14443 28
11555 14441 14444 28
11556 14441 14445 28
11557 14446 14447 28
11558 14446 14448 28
11559 14446 14449 28
11560 14446 14450 28
11561 14451 14452 28
11562 14451 14453 28
11563 14451 14454 28
11564 14451 14455 28
11565 14456 14457 28
11566 14456 14458 28
11567 14456 14459 28
11568 14456 14460 28
11569 14461 14462 28
11570 14461 14463 28
11571 14461 14464 28
11572 14461 14465 28
11573 14466 14467 28
11574 14466 14468 28
11575 14466 14469 28
11576 14466 14470 28
11577 14471 14472 28
11578 14471 14473 28
11579 14471 14474 28
11580 14471 14475 28
11581 14476 14477 28
11582 14476 14478 28
11583 14476 14479 28
11584 14476 14480 28
11585 14481 14482 28
11586 14481 14483 28
11587 14481 14484 28
11588 14481 14485 28
11589 14486 14487 28
11590 14486 14488 28
11591 14486 14489 28
11592 14486 14490 28
11593 14491 14492 28
11594 14491 14493 28
11595 14491 14494 28
11596 14491 14495 28
11597 14496 14497 28
11598 14496 14498 28
11599 14496 14499 28
11600 14496 14500 28
11601 14501 14502 28
11602 14501 14503 28
11603 14501 14504 28
11604 14501 14505 28
11605 14506 14507 28
11606 14506 14508 28
11607 14506 14509 28
11608 14506 14510 28
11609 14511 14512 28
11610 14511 14513 28
11611 14511 14514 28
11612 14511 14515 28
11613 14516 14517 28
11614 14516 14518 28
11615 14516 14519 28
11616 14516 14520 28
11617 14521 14522 28
11618 14521 14523 28
11619 14521 14524 28
11620 14521 14525 28
11621 14526 14527 28
11622 14526 14528 28
11623 14526 14529 28
11624 14526 14530 28
11625 14531 14532 28
11626 14531 14533 28
11627 14531 14534 28
11628 14531 14535 28
11629 14536 14537 28
11630 14536 14538 28
11631 14536 14539 28
11632 14536 14540 28
11633 14541 14542 28
11634 14541 14543 28
11635 14541 14544 28
11636 14541 14545 28
11637 14546 14547 28
11638 14546 14548 28
11639 14546 14549 28
11640 14546 14550 28
11641 14551 14552 28
11642 14551 14553 28
11643 14551 14554 28
11644 14551 14555 28
11645 14556 14557 28
11646 14556 14558 28
11647 14556 14559 28
11648 14556 14560 28
11649 14561 14562 28
11650 14561 14563 28
11651 14561 14564 28
11652 14561 14565 28
11653 14566 14567 28
11654 14566 14568 28
11655 14566 14569 28
11656 14566 14570 28
11657 14571 14572 28
11658 14571 14573 28
11659 14571 14574 28
11660 14571 14575 28
11661 14576 14577 28
11662 14576 14578 28
11663 14576 14579 28
11664 14576 14580 28
11665 14581 14582 28
11666 14581 14583 28
11667 14581 14584 28
11668 14581 14585 28
11669 14586 14587 28
11670 14586 14588 28
11671 14586 14589 28
11672 14586 14590 28
11673 14591 14592 28
11674 14591 14593 28
11675 14591 14594 28
11676 14591 14595 28
11677 14596 14597 28
11678 14596 14598 28
11679 14596 14599 28
11680 14596 14600 28
11681 14601 14602 28
11682 14601 14603 28
11683 14601 14604 28
11684 14601 14605 28
11685 14606 14607 28
11686 14606 14608 28
11687 14606 14609 28
11688 14606 14610 28
11689 14611 14612 28
11690 14611 14613 28
11691 14611 14614 28
11692 14611 14615 28
11693 14616 14617 28
11694 14616 14618 28
11695 14616 14619 28
11696 14616 14620 28
11697 14621 14622 28
11698 14621 14623 28
11699 14621 14624 28
11700 14621 14625 28
11701 14626 14627 28
11702 14626 14628 28
11703 14626 14629 28
11704 14626 14630 28
11705 14631 14632 28
11706 14631 14633 28
11707 14631 14634 28
11708 14631 14635 28
11709 14636 14637 28
11710 14636 14638 28
11711 14636 14639 28
11712 14636 14640 28
11713 14641 14642 28
11714 14641 14643 28
11715 14641 14644 28
11716 14641 14645 28
11717 14646 14647 28
11718 14646 14648 28
11719 14646 14649 28
11720 14646 14650 28
11721 14651 14652 28
11722 14651 14653 28
11723 14651 14654 28
11724 14651 14655 28
11725 14656 14657 28
11726 14656 14658 28
11727 14656 14659 28
11728 14656 14660 28
11729 14661 14662 28
11730 14661 14663 28
11731 14661 14664 28
11732 14661 14665 28
11733 14666 14667 28
11734 14666 14668 28
11735 14666 14669 28
11736 14666 14670 28
11737 14671 14672 28
11738 14671 14673 28
11739 14671 14674 28
11740 14671 14675 28
11741 14676 14677 28
11742 14676 14678 28
11743 14676 14679 28
11744 14676 14680 28
11745 14681 14682 28
11746 14681 14683 28
11747 14681 14684 28
11748 14681 14685 28
11749 14686 14687 28
11750 14686 14688 28
11751 14686 14689 28
11752 14686 14690 28
11753 14691 14692 28
11754 14691 14693 28
11755 14691 14694 28
11756 14691 14695 28
11757 14696 14697 28
11758 14696 14698 28
11759 14696 14699 28
11760 14696 14700 28
11761 14701 14702 28
11762 14701 14703 28
11763 14701 14704 28
11764 14701 14705 28
11765 14706 14707 28
11766 14706 14708 28
11767 14706 14709 28
11768 14706 14710 28
11769 14711 14712 28
11770 14711 14713 28
11771 14711 14714 28
11772 14711 14715 28
11773 14716 14717 28
11774 14716 14718 28
11775 14716 14719 28
11776 14716 14720 28
11777 14721 14722 28
11778 14721 14723 28
11779 14721 14724 28
11780 14721 14725 28
11781 14726 14727 28
11782 14726 14728 28
11783 14726 14729 28
11784 14726 14730 28
11785 14731 14732 28
11786 14731 14733 28
11787 14731 14734 28
11788 14731 14735 28
11789 14736 14737 28
11790 14736 14738 28
11791 14736 14739 28
11792 14736 14740 28
11793 14741 14742 28
11794 14741 14743 28
11795 14741 14744 28
11796 14741 14745 28
11797 14746 14747 28
11798 14746 14748 28
11799 14746 14749 28
11800 14746 14750 28
11801 14751 14752 28
11802 14751 14753 28
11803 14751 14754 28
11804 14751 14755 28
11805 14756 14757 28
11806 14756 14758 28
11807 14756 14759 28
11808 14756 14760 28
11809 14761 14762 28
11810 14761 14763 28
11811 14761 14764 28
11812 14761 14765 28
11813 14766 14767 28
11814 14766 14768 28
11815 14766 14769 28
11816 14766 14770 28
11817 14771 14772 28
11818 14771 14773 28
11819 14771 14774 28
11820 14771 14775 28
11821 14776 14777 28
11822 14776 14778 28
11823 14776 14779 28
11824 14776 14780 28
11825 14781 14782 28
11826 14781 14783 28
11827 14781 14784 28
11828 14781 14785 28
11829 14786 14787 28
11830 14786 14788 28
11831 14786 14789 28
11832 14786 14790 28
11833 14791 14792 28
11834 14791 14793 28
11835 14791 14794 28
11836 14791 14795 28
11837 14796 14797 28
11838 14796 14798 28
11839 14796 14799 28
11840 14796 14800 28
11841 14801 14802 28
11842 14801 14803 28
11843 14801 14804 28
11844 14801 14805 28
11845 14806 14807 28
11846 14806 14808 28
11847 14806 14809 28
11848 14806 14810 28
11849 14811 14812 28
11850 14811 14813 28
11851 14811 14814 28
11852 14811 14815 28
11853 14816 14817 28
11854 14816 14818 28
11855 14816 14819 28
11856 14816 14820 28
11857 14821 14822 28
11858 14821 14823 28
11859 14821 14824 28
11860 14821 14825 28
11861 14826 14827 28
11862 14826 14828 28
11863 14826 14829 28
11864 14826 14830 28
11865 14831 14832 28
11866 14831 14833 28
11867 14831 14834 28
11868 14831 14835 28
11869 14836 14837 28
11870 14836 14838 28
11871 14836 14839 28
11872 14836 14840 28
11873 14841 14842 28
11874 14841 14843 28
11875 14841 14844 28
11876 14841 14845 28
11877 14846 14847 28
11878 14846 14848 28
11879 14846 14849 28
11880 14846 14850 28
11881 14851 14852 28
11882 14851 14853 28
11883 14851 14854 28
11884 14851 14855 28
11885 14856 14857 28
11886 14856 14858 28
11887 14856 14859 28
11888 14856 14860 28
11889 14861 14862 28
11890 14861 14863 28
11891 14861 14864 28
11892 14861 14865 28
11893 14866 14867 28
11894 14866 14868 28
11895 14866 14869 28
11896 14866 14870 28
11897 14871 14872 28
11898 14871 14873 28
11899 14871 14874 28
11900 14871 14875 28
11901 14876 14877 28
11902 14876 14878 28
11903 14876 14879 28
11904 14876 14880 28
11905 14881 14882 28
11906 14881 14883 28
11907 14881 14884 28
11908 14881 14885 28
11909 14886 14887 28
11910 14886 14888 28
11911 14886 14889 28
11912 14886 14890 28
11913 14891 14892 28
11914 14891 14893 28
11915 14891 14894 28
11916 14891 14895 28
11917 14896 14897 28
11918 14896 14898 28
11919 14896 14899 28
11920 14896 14900 28
11921 14901 14902 28
11922 14901 14903 28
11923 14901 14904 28
11924 14901 14905 28
11925 14906 14907 28
11926 14906 14908 28
11927 14906 14909 28
11928 14906 14910 28
11929 14911 14912 28
11930 14911 14913 28
11931 14911 14914 28
11932 14911 14915 28
11933 14916 14917 28
11934 14916 14918 28
11935 14916 14919 28
11936 14916 14920 28
11937 14921 14922 28
11938 14921 14923 28
11939 14921 14924 28
11940 14921 14925 28
11941 14926 14927 28
11942 14926 14928 28
11943 14926 14929 28
11944 14926 14930 28
11945 14931 14932 28
11946 14931 14933 28
11947 14931 14934 28
11948 14931 14935 28
11949 14936 14937 28
11950 14936 14938 28
11951 14936 14939 28
11952 14936 14940 28
11953 14941 14942 28
11954 14941 14943 28
11955 14941 14944 28
11956 14941 14945 28
11957 14946 14947 28
11958 14946 14948 28
11959 14946 14949 28
11960 14946 14950 28
11961 14951 14952 28
11962 14951 14953 28
11963 14951 14954 28
11964 14951 14955 28
11965 14956 14957 28
11966 14956 14958 28
11967 14956 14959 28
11968 14956 14960 28
11969 14961 14962 28
11970 14961 14963 28
11971 14961 14964 28
11972 14961 14965 28
11973 14966 14967 28
11974 14966 14968 28
11975 14966 14969 28
11976 14966 14970 28
11977 14971 14972 28
11978 14971 14973 28
11979 14971 14974 28
11980 14971 14975 28
11981 14976 14977 28
11982 14976 14978 28
11983 14976 14979 28
11984 14976 14980 28
11985 14981 14982 28
11986 14981 14983 28
11987 14981 14984 28
11988 14981 14985 28
11989 14986 14987 28
11990 14986 14988 28
11991 14986 14989 28
11992 14986 14990 28
11993 14991 14992 28
11994 14991 14993 28
11995 14991 14994 28
11996 14991 14995 28
11997 14996 14997 28
11998 14996 14998 28
11999 14996 14999 28
12000 14996 15000 28
12001 15001 15002 28
12002 15001 15003 28
12003 15001 15004 28
12004 15001 15005 28
12005 15006 15007 28
12006 15006 15008 28
12007 15006 15009 28
12008 15006 15010 28
12009 15011 15012 28
12010 15011 15013 28
12011 15011 15014 28
12012 15011 15015 28
12013 15016 15017 28
12014 15016 15018 28
12015 15016 15019 28
12016 15016 15020 28
12017 15021 15022 28
12018 15021 15023 28
12019 15021 15024 28
12020 15021 15025 28
12021 15026 15027 28
12022 15026 15028 28
12023 15026 15029 28
12024 15026 15030 28
12025 15031 15032 28
12026 15031 15033 28
12027 15031 15034 28
12028 15031 15035 28
12029 15036 15037 28
12030 15036 15038 28
12031 15036 15039 28
12032 15036 15040 28
12033 15041 15042 28
12034 15041 15043 28
12035 15041 15044 28
12036 15041 15045 28
12037 15046 15047 28
12038 15046 15048 28
12039 15046 15049 28
12040 15046 15050 28
12041 15051 15052 28
12042 15051 15053 28
12043 15051 15054 28
12044 15051 15055 28
12045 15056 15057 28
12046 15056 15058 28
12047 15056 15059 28
12048 15056 15060 28
12049 15061 15062 28
12050 15061 15063 28
12051 15061 15064 28
12052 15061 15065 28
12053 15066 15067 28
12054 15066 15068 28
12055 15066 15069 28
12056 15066 15070 28
12057 15071 15072 28
12058 15071 15073 28
12059 15071 15074 28
12060 15071 15075 28
12061 15076 15077 28
12062 15076 15078 28
12063 15076 15079 28
12064 15076 15080 28
12065 15081 15082 28
12066 15081 15083 28
12067 15081 15084 28
12068 15081 15085 28
12069 15086 15087 28
12070 15086 15088 28
12071 15086 15089 28
12072 15086 15090 28
12073 15091 15092 28
12074 15091 15093 28
12075 15091 15094 28
12076 15091 15095 28
12077 15096 15097 28
12078 15096 15098 28
12079 15096 15099 28
12080 15096 15100 28
12081 15101 15102 28
12082 15101 15103 28
12083 15101 15104 28
12084 15101 15105 28
12085 15106 15107 28
12086 15106 15108 28
12087 15106 15109 28
12088 15106 15110 28
12089 15111 15112 28
12090 15111 15113 28
12091 15111 15114 28
12092 15111 15115 28
12093 15116 15117 28
12094 15116 15118 28
12095 15116 15119 28
12096 15116 15120 28
12097 15121 15122 28
12098 15121 15123 28
12099 15121 15124 28
12100 15121 15125 28
12101 15126 15127 28
12102 15126 15128 28
12103 15126 15129 28
12104 15126 15130 28
12105 15131 15132 28
12106 15131 15133 28
12107 15131 15134 28
12108 15131 15135 28
12109 15136 15137 28
12110 15136 15138 28
12111 15136 15139 28
12112 15136 15140 28
12113 15141 15142 28
12114 15141 15143 28
12115 15141 15144 28
12116 15141 15145 28
12117 15146 15147 28
12118 15146 15148 28
12119 15146 15149 28
12120 15146 15150 28
12121 15151 15152 28
12122 15151 15153 28
12123 15151 15154 28
12124 15151 15155 28
12125 15156 15157 28
12126 15156 15158 28
12127 15156 15159 28
12128 15156 15160 28
12129 15161 15162 28
12130 15161 15163 28
12131 15161 15164 28
12132 15161 15165 28
12133 15166 15167 28
12134 15166 15168 28
12135 15166 15169 28
12136 15166 15170 28
12137 15171 15172 28
12138 15171 15173 28
12139 15171 15174 28
12140 15171 15175 28
12141 15176 15177 28
12142 15176 15178 28
12143 15176 15179 28
12144 15176 15180 28
12145 15181 15182 28
12146 15181 15183 28
12147 15181 15184 28
12148 15181 15185 28
12149 15186 15187 28
12150 15186 15188 28
12151 15186 15189 28
12152 15186 15190 28
12153 15191 15192 28
12154 15191 15193 28
12155 15191 15194 28
12156 15191 15195 28
12157 15196 15197 28
12158 15196 15198 28
12159 15196 15199 28
12160 15196 15200 28
12161 15201 15202 28
12162 15201 15203 28
12163 15201 15204 28
12164 15201 15205 28
12165 15206 15207 28
12166 15206 15208 28
12167 15206 15209 28
12168 15206 15210 28
12169 15211 15212 28
12170 15211 15213 28
12171 15211 15214 28
12172 15211 15215 28
12173 15216 15217 28
12174 15216 15218 28
12175 15216 15219 28
12176 15216 15220 28
12177 15221 15222 28
12178 15221 15223 28
12179 15221 15224 28
12180 15221 15225 28
12181 15226 15227 28
12182 15226 15228 28
12183 15226 15229 28
12184 15226 15230 28
12185 15231 15232 28
12186 15231 15233 28
12187 15231 15234 28
12188 15231 15235 28
12189 15236 15237 28
12190 15236 15238 28
12191 15236 15239 28
12192 15236 15240 28
12193 15241 15242 28
12194 15241 15243 28
12195 15241 15244 28
12196 15241 15245 28
12197 15246 15247 28
12198 15246 15248 28
12199 15246 15249 28
12200 15246 15250 28
12201 15251 15252 28
12202 15251 15253 28
12203 15251 15254 28
12204 15251 15255 28
12205 15256 15257 28
12206 15256 15258 28
12207 15256 15259 28
12208 15256 15260 28
12209 15261 15262 28
12210 15261 15263 28
12211 15261 15264 28
12212 15261 15265 28
12213 15266 15267 28
12214 15266 15268 28
12215 15266 15269 28
12216 15266 15270 28
12217 15271 15272 28
12218 15271 15273 28
12219 15271 15274 28
12220 15271 15275 28
12221 15276 15277 28
12222 15276 15278 28
12223 15276 15279 28
12224 15276 15280 28
12225 15281 15282 28
12226 15281 15283 28
12227 15281 15284 28
12228 15281 15285 28
12229 15286 15287 28
12230 15286 15288 28
12231 15286 15289 28
12232 15286 15290 28
12233 15291 15292 28
12234 15291 15293 28
12235 15291 15294 28
12236 15291 15295 28
12237 15296 15297 28
12238 15296 15298 28
12239 15296 15299 28
12240 15296 15300 28
12241 15301 15302 28
12242 15301 15303 28
12243 15301 15304 28
12244 15301 15305 28
12245 15306 15307 28
12246 15306 15308 28
12247 15306 15309 28
12248 15306 15310 28
12249 15311 15312 28
12250 15311 15313 28
12251 15311 15314 28
12252 15311 15315 28
12253 15316 15317 28
12254 15316 15318 28
12255 15316 15319 28
12256 15316 15320 28
12257 15321 15322 28
12258 15321 15323 28
12259 15321 15324 28
12260 15321 15325 28
12261 15326 15327 28
12262 15326 15328 28
12263 15326 15329 28
12264 15326 15330 28
12265 15331 15332 28
12266 15331 15333 28
12267 15331 15334 28
12268 15331 15335 28
12269 15336 15337 28
12270 15336 15338 28
12271 15336 15339 28
12272 15336 15340 28
12273 15341 15342 28
12274 15341 15343 28
12275 15341 15344 28
12276 15341 15345 28
12277 15346 15347 28
12278 15346 15348 28
12279 15346 15349 28
12280 15346 15350 28
12281 15351 15352 28
12282 15351 15353 28
12283 15351 15354 28
12284 15351 15355 28
12285 15356 15357 28
12286 15356 15358 28
12287 15356 15359 28
12288 15356 15360 28
12289 15361 15362 28
12290 15361 15363 28
12291 15361 15364 28
12292 15361 15365 28
12293 15366 15367 28
12294 15366 15368 28
12295 15366 15369 28
12296 15366 15370 28
12297 15371 15372 28
12298 15371 15373 28
12299 15371 15374 28
12300 15371 15375 28
12301 15376 15377 28
12302 15376 15378 28
12303 15376 15379 28
12304 15376 15380 28
12305 15381 15382 28
12306 15381 15383 28
12307 15381 15384 28
12308 15381 15385 28
12309 15386 15387 28
12310 15386 15388 28
12311 15386 15389 28
12312 15386 15390 28
12313 15391 15392 28
12314 15391 15393 28
12315 15391 15394 28
12316 15391 15395 28
12317 15396 15397 28
12318 15396 15398 28
12319 15396 15399 28
12320 15396 15400 28
12321 15401 15402 28
12322 15401 15403 28
12323 15401 15404 28
12324 15401 15405 28
12325 15406 15407 28
12326 15406 15408 28
12327 15406 15409 28
12328 15406 15410 28
12329 15411 15412 28
12330 15411 15413 28
12331 15411 15414 28
12332 15411 15415 28
12333 15416 15417 28
12334 15416 15418 28
12335 15416 15419 28
12336 15416 15420 28
12337 15421 15422 28
12338 15421 15423 28
12339 15421 15424 28
12340 15421 15425 28
12341 15426 15427 28
12342 15426 15428 28
12343 15426 15429 28
12344 15426 15430 28
12345 15431 15432 28
12346 15431 15433 28
12347 15431 15434 28
12348 15431 15435 28
12349 15436 15437 28
12350 15436 15438 28
12351 15436 15439 28
12352 15436 15440 28
12353 15441 15442 28
12354 15441 15443 28
12355 15441 15444 28
12356 15441 15445 28
12357 15446 15447 28
12358 15446 15448 28
12359 15446 15449 28
12360 15446 15450 28
12361 15451 15452 28
12362 15451 15453 28
12363 15451 15454 28
12364 15451 15455 28
12365 15456 15457 28
12366 15456 15458 28
12367 15456 15459 28
12368 15456 15460 28
12369 15461 15462 28
12370 15461 15463 28
12371 15461 15464 28
12372 15461 15465 28
12373 15466 15467 28
12374 15466 15468 28
12375 15466 15469 28
12376 15466 15470 28
12377 15471 15472 28
12378 15471 15473 28
12379 15471 15474 28
12380 15471 15475 28
12381 15476 15477 28
12382 15476 15478 28
12383 15476 15479 28
12384 15476 15480 28
12385 15481 15482 28
12386 15481 15483 28
12387 15481 15484 28
12388 15481 15485 28
12389 15486 15487 28
12390 15486 15488 28
12391 15486 15489 28
12392 15486 15490 28
12393 15491 15492 28
12394 15491 15493 28
12395 15491 15494 28
12396 15491 15495 28
12397 15496 15497 28
12398 15496 15498 28
12399 15496 15499 28
12400 15496 15500 28
12401 15501 15502 28
12402 15501 15503 28
12403 15501 15504 28
12404 15501 15505 28
12405 15506 15507 28
12406 15506 15508 28
12407 15506 15509 28
12408 15506 15510 28
12409 15511 15512 28
12410 15511 15513 28
12411 15511 15514 28
12412 15511 15515 28
12413 15516 15517 28
12414 15516 15518 28
12415 15516 15519 28
12416 15516 15520 28
12417 15521 15522 28
12418 15521 15523 28
12419 15521 15524 28
12420 15521 15525 28
12421 15526 15527 28
12422 15526 15528 28
12423 15526 15529 28
12424 15526 15530 28
12425 15531 15532 28
12426 15531 15533 28
12427 15531 15534 28
12428 15531 15535 28
12429 15536 15537 28
12430 15536 15538 28
12431 15536 15539 28
12432 15536 15540 28
12433 15541 15542 28
12434 15541 15543 28
12435 15541 15544 28
12436 15541 15545 28
12437 15546 15547 28
12438 15546 15548 28
12439 15546 15549 28
12440 15546 15550 28
12441 15551 15552 28
12442 15551 15553 28
12443 15551 15554 28
12444 15551 15555 28
12445 15556 15557 28
12446 15556 15558 28
12447 15556 15559 28
12448 15556 15560 28
12449 15561 15562 28
12450 15561 15563 28
12451 15561 15564 28
12452 15561 15565 28
12453 15566 15567 28
12454 15566 15568 28
12455 15566 15569 28
12456 15566 15570 28
12457 15571 15572 28
12458 15571 15573 28
12459 15571 15574 28
12460 15571 15575 28
12461 15576 15577 28
12462 15576 15578 28
12463 15576 15579 28
12464 15576 15580 28
12465 15581 15582 28
12466 15581 15583 28
12467 15581 15584 28
12468 15581 15585 28
12469 15586 15587 28
12470 15586 15588 28
12471 15586 15589 28
12472 15586 15590 28
12473 15591 15592 28
12474 15591 15593 28
12475 15591 15594 28
12476 15591 15595 28
12477 15596 15597 28
12478 15596 15598 28
12479 15596 15599 28
12480 15596 15600 28
12481 15601 15602 28
12482 15601 15603 28
12483 15601 15604 28
12484 15601 15605 28
12485 15606 15607 28
12486 15606 15608 28
12487 15606 15609 28
12488 15606 15610 28
12489 15611 15612 28
12490 15611 15613 28
12491 15611 15614 28
12492 15611 15615 28
12493 15616 15617 28
12494 15616 15618 28
12495 15616 15619 28
12496 15616 15620 28
12497 15621 15622 28
12498 15621 15623 28
12499 15621 15624 28
12500 15621 15625 28
12501 15626 15627 28
12502 15626 15628 28
12503 15626 15629 28
12504 15626 15630 28
12505 15631 15632 28
12506 15631 15633 28
12507 15631 15634 28
12508 15631 15635 28
12509 15636 15637 28
12510 15636 15638 28
12511 15636 15639 28
12512 15636 15640 28
12513 15641 15642 28
12514 15641 15643 28
12515 15641 15644 28
12516 15641 15645 28
12517 15646 15647 28
12518 15646 15648 28
12519 15646 15649 28
12520 15646 15650 28
12521 15651 15652 28
12522 15651 15653 28
12523 15651 15654 28
12524 15651 15655 28
12525 15656 15657 28
12526 15656 15658 28
12527 15656 15659 28
12528 15656 15660 28
12529 15661 15662 28
12530 15661 15663 28
12531 15661 15664 28
12532 15661 15665 28
12533 15666 15667 28
12534 15666 15668 28
12535 15666 15669 28
12536 15666 15670 28
12537 15671 15672 28
12538 15671 15673 28
12539 15671 15674 28
12540 15671 15675 28
12541 15676 15677 28
12542 15676 15678 28
12543 15676 15679 28
12544 15676 15680 28
12545 15681 15682 28
12546 15681 15683 28
12547 15681 15684 28
12548 15681 15685 28
12549 15686 15687 28
12550 15686 15688 28
12551 15686 15689 28
12552 15686 15690 28
12553 15691 15692 28
12554 15691 15693 28
12555 15691 15694 28
12556 15691 15695 28
12557 15696 15697 28
12558 15696 15698 28
12559 15696 15699 28
12560 15696 15700 28
12561 15701 15702 28
12562 15701 15703 28
12563 15701 15704 28
12564 15701 15705 28
12565 15706 15707 28
12566 15706 15708 28
12567 15706 15709 28
12568 15706 15710 28
12569 15711 15712 28
12570 15711 15713 28
12571 15711 15714 28
12572 15711 15715 28
12573 15716 15717 28
12574 15716 15718 28
12575 15716 15719 28
12576 15716 15720 28
12577 15721 15722 28
12578 15721 15723 28
12579 15721 15724 28
12580 15721 15725 28
12581 15726 15727 28
12582 15726 15728 28
12583 15726 15729 28
12584 15726 15730 28
12585 15731 15732 28
12586 15731 15733 28
12587 15731 15734 28
12588 15731 15735 28
12589 15736 15737 28
12590 15736 15738 28
12591 15736 15739 28
12592 15736 15740 28
12593 15741 15742 28
12594 15741 15743 28
12595 15741 15744 28
12596 15741 15745 28
12597 15746 15747 28
12598 15746 15748 28
12599 15746 15749 28
12600 15746 15750 28
12601 15751 15752 28
12602 15751 15753 28
12603 15751 15754 28
12604 15751 15755 28
12605 15756 15757 28
12606 15756 15758 28
12607 15756 15759 28
12608 15756 15760 28
12609 15761 15762 28
12610 15761 15763 28
12611 15761 15764 28
12612 15761 15765 28
12613 15766 15767 28
12614 15766 15768 28
12615 15766 15769 28
12616 15766 15770 28
12617 15771 15772 28
12618 15771 15773 28
12619 15771 15774 28
12620 15771 15775 28
12621 15776 15777 28
12622 15776 15778 28
12623 15776 15779 28
12624 15776 15780 28
12625 15781 15782 28
12626 15781 15783 28
12627 15781 15784 28
12628 15781 15785 28
12629 15786 15787 28
12630 15786 15788 28
12631 15786 15789 28
12632 15786 15790 28
12633 15791 15792 28
12634 15791 15793 28
12635 15791 15794 28
12636 15791 15795 28
12637 15796 15797 28
12638 15796 15798 28
12639 15796 15799 28
12640 15796 15800 28
12641 15801 15802 28
12642 15801 15803 28
12643 15801 15804 28
12644 15801 15805 28
12645 15806 15807 28
12646 15806 15808 28
12647 15806 15809 28
12648 15806 15810 28
12649 15811 15812 28
12650 15811 15813 28
12651 15811 15814 28
12652 15811 15815 28
12653 15816 15817 28
12654 15816 15818 28
12655 15816 15819 28
12656 15816 15820 28
12657 15821 15822 28
12658 15821 15823 28
12659 15821 15824 28
12660 15821 15825 28
12661 15826 15827 28
12662 15826 15828 28
12663 15826 15829 28
12664 15826 15830 28
12665 15831 15832 28
12666 15831 15833 28
12667 15831 15834 28
12668 15831 15835 28
12669 15836 15837 28
12670 15836 15838 28
12671 15836 15839 28
12672 15836 15840 28
12673 15841 15842 28
12674 15841 15843 28
12675 15841 15844 28
12676 15841 15845 28
12677 15846 15847 28
12678 15846 15848 28
12679 15846 15849 28
12680 15846 15850 28
12681 15851 15852 28
12682 15851 15853 28
12683 15851 15854 28
12684 15851 15855 28
12685 15856 15857 28
12686 15856 15858 28
12687 15856 15859 28
12688 15856 15860 28
12689 15861 15862 28
12690 15861 15863 28
12691 15861 15864 28
12692 15861 15865 28
12693 15866 15867 28
12694 15866 15868 28
12695 15866 15869 28
12696 15866 15870 28
12697 15871 15872 28
12698 15871 15873 28
12699 15871 15874 28
12700 15871 15875 28
12701 15876 15877 28
12702 15876 15878 28
12703 15876 15879 28
12704 15876 15880 28
12705 15881 15882 28
12706 15881 15883 28
12707 15881 15884 28
12708 15881 15885 28
12709 15886 15887 28
12710 15886 15888 28
12711 15886 15889 28
12712 15886 15890 28
12713 15891 15892 28
12714 15891 15893 28
12715 15891 15894 28
12716 15891 15895 28
12717 15896 15897 28
12718 15896 15898 28
12719 15896 15899 28
12720 15896 15900 28
12721 15901 15902 28
12722 15901 15903 28
12723 15901 15904 28
12724 15901 15905 28
12725 15906 15907 28
12726 15906 15908 28
12727 15906 15909 28
12728 15906 15910 28
12729 15911 15912 28
12730 15911 15913 28
12731 15911 15914 28
12732 15911 15915 28
12733 15916 15917 28
12734 15916 15918 28
12735 15916 15919 28
12736 15916 15920 28
12737 15921 15922 28
12738 15921 15923 28
12739 15921 15924 28
12740 15921 15925 28
12741 15926 15927 28
12742 15926 15928 28
12743 15926 15929 28
12744 15926 15930 28
12745 15931 15932 28
12746 15931 15933 28
12747 15931 15934 28
12748 15931 15935 28
12749 15936 15937 28
12750 15936 15938 28
12751 15936 15939 28
12752 15936 15940 28
12753 15941 15942 28
12754 15941 15943 28
12755 15941 15944 28
12756 15941 15945 28
12757 15946 15947 28
12758 15946 15948 28
12759 15946 15949 28
12760 15946 15950 28
12761 15951 15952 28
12762 15951 15953 28
12763 15951 15954 28
12764 15951 15955 28
12765 15956 15957 28
12766 15956 15958 28
12767 15956 15959 28
12768 15956 15960 28
12769 15961 15962 28
12770 15961 15963 28
12771 15961 15964 28
12772 15961 15965 28
12773 15966 15967 28
12774 15966 15968 28
12775 15966 15969 28
12776 15966 15970 28
12777 15971 15972 28
12778 15971 15973 28
12779 15971 15974 28
12780 15971 15975 28
12781 15976 15977 28
12782 15976 15978 28
12783 15976 15979 28
12784 15976 15980 28
12785 15981 15982 28
12786 15981 15983 28
12787 15981 15984 28
12788 15981 15985 28
12789 15986 15987 28
12790 15986 15988 28
12791 15986 15989 28
12792 15986 15990 28
12793 15991 15992 28
12794 15991 15993 28
12795 15991 15994 28
12796 15991 15995 28
12797 15996 15997 28
12798 15996 15998 28
12799 15996 15999 28
12800 15996 16000 28
12801 16001 16002 28
12802 16001 16003 28
12803 16001 16004 28
12804 16001 16005 28
12805 16006 16007 28
12806 16006 16008 28
12807 16006 16009 28
12808 16006 16010 28
12809 16011 16012 28
12810 16011 16013 28
12811 16011 16014 28
12812 16011 16015 28
12813 16016 16017 28
12814 16016 16018 28
12815 16016 16019 28
12816 16016 16020 28
12817 16021 16022 28
12818 16021 16023 28
12819 16021 16024 28
12820 16021 16025 28
12821 16026 16027 28
12822 16026 16028 28
12823 16026 16029 28
12824 16026 16030 28
12825 16031 16032 28
12826 16031 16033 28
12827 16031 16034 28
12828 16031 16035 28
12829 16036 16037 28
12830 16036 16038 28
12831 16036 16039 28
12832 16036 16040 28
12833 16041 16042 28
12834 16041 16043 28
12835 16041 16044 28
12836 16041 16045 28
12837 16046 16047 28
12838 16046 16048 28
12839 16046 16049 28
12840 16046 16050 28
12841 16051 16052 28
12842 16051 16053 28
12843 16051 16054 28
12844 16051 16055 28
12845 16056 16057 28
12846 16056 16058 28
12847 16056 16059 28
12848 16056 16060 28
12849 16061 16062 28
12850 16061 16063 28
12851 16061 16064 28
12852 16061 16065 28
12853 16066 16067 28
12854 16066 16068 28
12855 16066 16069 28
12856 16066 16070 28
12857 16071 16072 28
12858 16071 16073 28
12859 16071 16074 28
12860 16071 16075 28
12861 16076 16077 28
12862 16076 16078 28
12863 16076 16079 28
12864 16076 16080 28
12865 16081 16082 28
12866 16081 16083 28
12867 16081 16084 28
12868 16081 16085 28
12869 16086 16087 28
12870 16086 16088 28
12871 16086 16089 28
12872 16086 16090 28
12873 16091 16092 28
12874 16091 16093 28
12875 16091 16094 28
12876 16091 16095 28
12877 16096 16097 28
12878 16096 16098 28
12879 16096 16099 28
12880 16096 16100 28
12881 16101 16102 28
12882 16101 16103 28
12883 16101 16104 28
12884 16101 16105 28
12885 16106 16107 28
12886 16106 16108 28
12887 16106 16109 28
12888 16106 16110 28
12889 16111 16112 28
12890 16111 16113 28
12891 16111 16114 28
12892 16111 16115 28
12893 16116 16117 28
12894 16116 16118 28
12895 16116 16119 28
12896 16116 16120 28
12897 16121 16122 28
12898 16121 16123 28
12899 16121 16124 28
12900 16121 16125 28
12901 16126 16127 28
12902 16126 16128 28
12903 16126 16129 28
12904 16126 16130 28
12905 16131 16132 28
12906 16131 16133 28
12907 16131 16134 28
12908 16131 16135 28
12909 16136 16137 28
12910 16136 16138 28
12911 16136 16139 28
12912 16136 16140 28
12913 16141 16142 28
12914 16141 16143 28
12915 16141 16144 28
12916 16141 16145 28
12917 16146 16147 28
12918 16146 16148 28
12919 16146 16149 28
12920 16146 16150 28
12921 16151 16152 28
12922 16151 16153 28
12923 16151 16154 28
12924 16151 16155 28
12925 16156 16157 28
12926 16156 16158 28
12927 16156 16159 28
12928 16156 16160 28
12929 16161 16162 28
12930 16161 16163 28
12931 16161 16164 28
12932 16161 16165 28
12933 16166 16167 28
12934 16166 16168 28
12935 16166 16169 28
12936 16166 16170 28
12937 16171 16172 28
12938 16171 16173 28
12939 16171 16174 28
12940 16171 16175 28
12941 16176 16177 28
12942 16176 16178 28
12943 16176 16179 28
12944 16176 16180 28
12945 16181 16182 28
12946 16181 16183 28
12947 16181 16184 28
12948 16181 16185 28
12949 16186 16187 28
12950 16186 16188 28
12951 16186 16189 28
12952 16186 16190 28
12953 16191 16192 28
12954 16191 16193 28
12955 16191 16194 28
12956 16191 16195 28
12957 16196 16197 28
12958 16196 16198 28
12959 16196 16199 28
12960 16196 16200 28
12961 16201 16202 28
12962 16201 16203 28
12963 16201 16204 28
12964 16201 16205 28
12965 16206 16207 28
12966 16206 16208 28
12967 16206 16209 28
12968 16206 16210 28
12969 16211 16212 28
12970 16211 16213 28
12971 16211 16214 28
12972 16211 16215 28
12973 16216 16217 28
12974 16216 16218 28
12975 16216 16219 28
12976 16216 16220 28
12977 16221 16222 28
12978 16221 16223 28
12979 16221 16224 28
12980 16221 16225 28
12981 16226 16227 28
12982 16226 16228 28
12983 16226 16229 28
12984 16226 16230 28
12985 16231 16232 28
12986 16231 16233 28
12987 16231 16234 28
12988 16231 16235 28
12989 16236 16237 28
12990 16236 16238 28
12991 16236 16239 28
12992 16236 16240 28
12993 16241 16242 28
12994 16241 16243 28
12995 16241 16244 28
12996 16241 16245 28
12997 16246 16247 28
12998 16246 16248 28
12999 16246 16249 28
13000 16246 16250 28
13001 16251 16252 28
13002 16251 16253 28
13003 16251 16254 28
13004 16251 16255 28
13005 16256 16257 28
13006 16256 16258 28
13007 16256 16259 28
13008 16256 16260 28
13009 16261 16262 28
13010 16261 16263 28
13011 16261 16264 28
13012 16261 16265 28
13013 16266 16267 28
13014 16266 16268 28
13015 16266 16269 28
13016 16266 16270 28
13017 16271 16272 28
13018 16271 16273 28
13019 16271 16274 28
13020 16271 16275 28
13021 16276 16277 28
13022 16276 16278 28
13023 16276 16279 28
13024 16276 16280 28
13025 16281 16282 28
13026 16281 16283 28
13027 16281 16284 28
13028 16281 16285 28
13029 16286 16287 28
13030 16286 16288 28
13031 16286 16289 28
13032 16286 16290 28
13033 16291 16292 28
13034 16291 16293 28
13035 16291 16294 28
13036 16291 16295 28
13037 16296 16297 28
13038 16296 16298 28
13039 16296 16299 28
13040 16296 16300 28
13041 16301 16302 28
13042 16301 16303 28
13043 16301 16304 28
13044 16301 16305 28
13045 16306 16307 28
13046 16306 16308 28
13047 16306 16309 28
13048 16306 16310 28
13049 16311 16312 28
13050 16311 16313 28
13051 16311 16314 28
13052 16311 16315 28
13053 16316 16317 28
13054 16316 16318 28
13055 16316 16319 28
13056 16316 16320 28
13057 16321 16322 28
13058 16321 16323 28
13059 16321 16324 28
13060 16321 16325 28
13061 16326 16327 28
13062 16326 16328 28
13063 16326 16329 28
13064 16326 16330 28
13065 16331 16332 28
13066 16331 16333 28
13067 16331 16334 28
13068 16331 16335 28
13069 16336 16337 28
13070 16336 16338 28
13071 16336 16339 28
13072 16336 16340 28
13073 16341 16342 28
13074 16341 16343 28
13075 16341 16344 28
13076 16341 16345 28
13077 16346 16347 28
13078 16346 16348 28
13079 16346 16349 28
13080 16346 16350 28
13081 16351 16352 28
13082 16351 16353 28
13083 16351 16354 28
13084 16351 16355 28
13085 16356 16357 28
13086 16356 16358 28
13087 16356 16359 28
13088 16356 16360 28
13089 16361 16362 28
13090 16361 16363 28
13091 16361 16364 28
13092 16361 16365 28
13093 16366 16367 28
13094 16366 16368 28
13095 16366 16369 28
13096 16366 16370 28
13097 16371 16372 28
13098 16371 16373 28
13099 16371 16374 28
13100 16371 16375 28
13101 16376 16377 28
13102 16376 16378 28
13103 16376 16379 28
13104 16376 16380 28
13105 16381 16382 28
13106 16381 16383 28
13107 16381 16384 28
13108 16381 16385 28
13109 16386 16387 28
13110 16386 16388 28
13111 16386 16389 28
13112 16386 16390 28
13113 16391 16392 28
13114 16391 16393 28
13115 16391 16394 28
13116 16391 16395 28
13117 16396 16397 28
13118 16396 16398 28
13119 16396 16399 28
13120 16396 16400 28
13121 16401 16402 28
13122 16401 16403 28
13123 16401 16404 28
13124 16401 16405 28
13125 16406 16407 28
13126 16406 16408 28
13127 16406 16409 28
13128 16406 16410 28
13129 16411 16412 28
13130 16411 16413 28
13131 16411 16414 28
13132 16411 16415 28
13133 16416 16417 28
13134 16416 16418 28
13135 16416 16419 28
13136 16416 16420 28
13137 16421 16422 28
13138 16421 16423 28
13139 16421 16424 28
13140 16421 16425 28
13141 16426 16427 28
13142 16426 16428 28
13143 16426 16429 28
13144 16426 16430 28
13145 16431 16432 28
13146 16431 16433 28
13147 16431 16434 28
13148 16431 16435 28
13149 16436 16437 28
13150 16436 16438 28
13151 16436 16439 28
13152 16436 16440 28
13153 16441 16442 28
13154 16441 16443 28
13155 16441 16444 28
13156 16441 16445 28
13157 16446 16447 28
13158 16446 16448 28
13159 16446 16449 28
13160 16446 16450 28
13161 16451 16452 28
13162 16451 16453 28
13163 16451 16454 28
13164 16451 16455 28
13165 16456 16457 28
13166 16456 16458 28
13167 16456 16459 28
13168 16456 16460 28
13169 16461 16462 28
13170 16461 16463 28
13171 16461 16464 28
13172 16461 16465 28
13173 16466 16467 28
13174 16466 16468 28
13175 16466 16469 28
13176 16466 16470 28
13177 16471 16472 28
13178 16471 16473 28
13179 16471 16474 28
13180 16471 16475 28
13181 16476 16477 28
13182 16476 16478 28
13183 16476 16479 28
13184 16476 16480 28
13185 16481 16482 28
13186 16481 16483 28
13187 16481 16484 28
13188 16481 16485 28
13189 16486 16487 28
13190 16486 16488 28
13191 16486 16489 28
13192 16486 16490 28
13193 16491 16492 28
13194 16491 16493 28
13195 16491 16494 28
13196 16491 16495 28
13197 16496 16497 28
13198 16496 16498 28
13199 16496 16499 28
13200 16496 16500 28
13201 16501 16502 28
13202 16501 16503 28
13203 16501 16504 28
13204 16501 16505 28
13205 16506 16507 28
13206 16506 16508 28
13207 16506 16509 28
13208 16506 16510 28
13209 16511 16512 28
13210 16511 16513 28
13211 16511 16514 28
13212 16511 16515 28
13213 16516 16517 28
13214 16516 16518 28
13215 16516 16519 28
13216 16516 16520 28
13217 16521 16522 28
13218 16521 16523 28
13219 16521 16524 28
13220 16521 16525 28
13221 16526 16527 28
13222 16526 16528 28
13223 16526 16529 28
13224 16526 16530 28
13225 16531 16532 28
13226 16531 16533 28
13227 16531 16534 28
13228 16531 16535 28
13229 16536 16537 28
13230 16536 16538 28
13231 16536 16539 28
13232 16536 16540 28
13233 16541 16542 28
13234 16541 16543 28
13235 16541 16544 28
13236 16541 16545 28
13237 16546 16547 28
13238 16546 16548 28
13239 16546 16549 28
13240 16546 16550 28
13241 16551 16552 28
13242 16551 16553 28
13243 16551 16554 28
13244 16551 16555 28
13245 16556 16557 28
13246 16556 16558 28
13247 16556 16559 28
13248 16556 16560 28
13249 16561 16562 28
13250 16561 16563 28
13251 16561 16564 28
13252 16561 16565 28
13253 16566 16567 28
13254 16566 16568 28
13255 16566 16569 28
13256 16566 16570 28
13257 16571 16572 28
13258 16571 16573 28
13259 16571 16574 28
13260 16571 16575 28
13261 16576 16577 28
13262 16576 16578 28
13263 16576 16579 28
13264 16576 16580 28
13265 16581 16582 28
13266 16581 16583 28
13267 16581 16584 28
13268 16581 16585 28
13269 16586 16587 28
13270 16586 16588 28
13271 16586 16589 28
13272 16586 16590 28
13273 16591 16592 28
13274 16591 16593 28
13275 16591 16594 28
13276 16591 16595 28
13277 16596 16597 28
13278 16596 16598 28
13279 16596 16599 28
13280 16596 16600 28
13281 16601 16602 28
13282 16601 16603 28
13283 16601 16604 28
13284 16601 16605 28
13285 16606 16607 28
13286 16606 16608 28
13287 16606 16609 28
13288 16606 16610 28
13289 16611 16612 28
13290 16611 16613 28
13291 16611 16614 28
13292 16611 16615 28
13293 16616 16617 28
13294 16616 16618 28
13295 16616 16619 28
13296 16616 16620 28
13297 16621 16622 28
13298 16621 16623 28
13299 16621 16624 28
13300 16621 16625 28
13301 16626 16627 28
13302 16626 16628 28
13303 16626 16629 28
13304 16626 16630 28
13305 16631 16632 28
13306 16631 16633 28
13307 16631 16634 28
13308 16631 16635 28
13309 16636 16637 28
13310 16636 16638 28
13311 16636 16639 28
13312 16636 16640 28
13313 16641 16642 28
13314 16641 16643 28
13315 16641 16644 28
13316 16641 16645 28
13317 16646 16647 28
13318 16646 16648 28
13319 16646 16649 28
13320 16646 16650 28
13321 16651 16652 28
13322 16651 16653 28
13323 16651 16654 28
13324 16651 16655 28
13325 16656 16657 28
13326 16656 16658 28
13327 16656 16659 28
13328 16656 16660 28
13329 16661 16662 28
13330 16661 16663 28
13331 16661 16664 28
13332 16661 16665 28
13333 16666 16667 28
13334 16666 16668 28
13335 16666 16669 28
13336 16666 16670 28
13337 16671 16672 28
13338 16671 16673 28
13339 16671 16674 28
13340 16671 16675 28
13341 16676 16677 28
13342 16676 16678 28
13343 16676 16679 28
13344 16676 16680 28
13345 16681 16682 28
13346 16681 16683 28
13347 16681 16684 28
13348 16681 16685 28
13349 16686 16687 28
13350 16686 16688 28
13351 16686 16689 28
13352 16686 16690 28
13353 16691 16692 28
13354 16691 16693 28
13355 16691 16694 28
13356 16691 16695 28
13357 16696 16697 28
13358 16696 16698 28
13359 16696 16699 28
13360 16696 16700 28
13361 16701 16702 28
13362 16701 16703 28
13363 16701 16704 28
13364 16701 16705 28
13365 16706 16707 28
13366 16706 16708 28
13367 16706 16709 28
13368 16706 16710 28
13369 16711 16712 28
13370 16711 16713 28
13371 16711 16714 28
13372 16711 16715 28
13373 16716 16717 28
13374 16716 16718 28
13375 16716 16719 28
13376 16716 16720 28
13377 16721 16722 28
13378 16721 16723 28
13379 16721 16724 28
13380 16721 16725 28
13381 16726 16727 28
13382 16726 16728 28
13383 16726 16729 28
13384 16726 16730 28
13385 16731 16732 28
13386 16731 16733 28
13387 16731 16734 28
13388 16731 16735 28
13389 16736 16737 28
13390 16736 16738 28
13391 16736 16739 28
13392 16736 16740 28
13393 16741 16742 28
13394 16741 16743 28
13395 16741 16744 28
13396 16741 16745 28
13397 16746 16747 28
13398 16746 16748 28
13399 16746 16749 28
13400 16746 16750 28
13401 16751 16752 28
13402 16751 16753 28
13403 16751 16754 28
13404 16751 16755 28
13405 16756 16757 28
13406 16756 16758 28
13407 16756 16759 28
13408 16756 16760 28
13409 16761 16762 28
13410 16761 16763 28
13411 16761 16764 28
13412 16761 16765 28
13413 16766 16767 28
13414 16766 16768 28
13415 16766 16769 28
13416 16766 16770 28
13417 16771 16772 28
13418 16771 16773 28
13419 16771 16774 28
13420 16771 16775 28
13421 16776 16777 28
13422 16776 16778 28
13423 16776 16779 28
13424 16776 16780 28
13425 16781 16782 28
13426 16781 16783 28
13427 16781 16784 28
13428 16781 16785 28
13429 16786 16787 28
13430 16786 16788 28
13431 16786 16789 28
13432 16786 16790 28
13433 16791 16792 28
13434 16791 16793 28
13435 16791 16794 28
13436 16791 16795 28
13437 16796 16797 28
13438 16796 16798 28
13439 16796 16799 28
13440 16796 16800 28
13441 16801 16802 28
13442 16801 16803 28
13443 16801 16804 28
13444 16801 16805 28
13445 16806 16807 28
13446 16806 16808 28
13447 16806 16809 28
13448 16806 16810 28
13449 16811 16812 28
13450 16811 16813 28
13451 16811 16814 28
13452 16811 16815 28
13453 16816 16817 28
13454 16816 16818 28
13455 16816 16819 28
13456 16816 16820 28
13457 16821 16822 28
13458 16821 16823 28
13459 16821 16824 28
13460 16821 16825 28
13461 16826 16827 28
13462 16826 16828 28
13463 16826 16829 28
13464 16826 16830 28
13465 16831 16832 28
13466 16831 16833 28
13467 16831 16834 28
13468 16831 16835 28
13469 16836 16837 28
13470 16836 16838 28
13471 16836 16839 28
13472 16836 16840 28
13473 16841 16842 28
13474 16841 16843 28
13475 16841 16844 28
13476 16841 16845 28
13477 16846 16847 28
13478 16846 16848 28
13479 16846 16849 28
13480 16846 16850 28
13481 16851 16852 28
13482 16851 16853 28
13483 16851 16854 28
13484 16851 16855 28
13485 16856 16857 28
13486 16856 16858 28
13487 16856 16859 28
13488 16856 16860 28
13489 16861 16862 28
13490 16861 16863 28
13491 16861 16864 28
13492 16861 16865 28
13493 16866 16867 28
13494 16866 16868 28
13495 16866 16869 28
13496 16866 16870 28
13497 16871 16872 28
13498 16871 16873 28
13499 16871 16874 28
13500 16871 16875 28
13501 16876 16877 28
13502 16876 16878 28
13503 16876 16879 28
13504 16876 16880 28
13505 16881 16882 28
13506 16881 16883 28
13507 16881 16884 28
13508 16881 16885 28
13509 16886 16887 28
13510 16886 16888 28
13511 16886 16889 28
13512 16886 16890 28
13513 16891 16892 28
13514 16891 16893 28
13515 16891 16894 28
13516 16891 16895 28
13517 16896 16897 28
13518 16896 16898 28
13519 16896 16899 28
13520 16896 16900 28
13521 16901 16902 28
13522 16901 16903 28
13523 16901 16904 28
13524 16901 16905 28
13525 16906 16907 28
13526 16906 16908 28
13527 16906 16909 28
13528 16906 16910 28
13529 16911 16912 28
13530 16911 16913 28
13531 16911 16914 28
13532 16911 16915 28
13533 16916 16917 28
13534 16916 16918 28
13535 16916 16919 28
13536 16916 16920 28
13537 16921 16922 28
13538 16921 16923 28
13539 16921 16924 28
13540 16921 16925 28
13541 16926 16927 28
13542 16926 16928 28
13543 16926 16929 28
13544 16926 16930 28
13545 16931 16932 28
13546 16931 16933 28
13547 16931 16934 28
13548 16931 16935 28
13549 16936 16937 28
13550 16936 16938 28
13551 16936 16939 28
13552 16936 16940 28
13553 16941 16942 28
13554 16941 16943 28
13555 16941 16944 28
13556 16941 16945 28
13557 16946 16947 28
13558 16946 16948 28
13559 16946 16949 28
13560 16946 16950 28
13561 16951 16952 28
13562 16951 16953 28
13563 16951 16954 28
13564 16951 16955 28
13565 16956 16957 28
13566 16956 16958 28
13567 16956 16959 28
13568 16956 16960 28
13569 16961 16962 28
13570 16961 16963 28
13571 16961 16964 28
13572 16961 16965 28
13573 16966 16967 28
13574 16966 16968 28
13575 16966 16969 28
13576 16966 16970 28
13577 16971 16972 28
13578 16971 16973 28
13579 16971 16974 28
13580 16971 16975 28
13581 16976 16977 28
13582 16976 16978 28
13583 16976 16979 28
13584 16976 16980 28
13585 16981 16982 28
13586 16981 16983 28
13587 16981 16984 28
13588 16981 16985 28
13589 16986 16987 28
13590 16986 16988 28
13591 16986 16989 28
13592 16986 16990 28
13593 16991 16992 28
13594 16991 16993 28
13595 16991 16994 28
13596 16991 16995 28
13597 16996 16997 28
13598 16996 16998 28
13599 16996 16999 28
13600 16996 17000 28
13601 17001 17002 28
13602 17001 17003 28
13603 17001 17004 28
13604 17001 17005 28
13605 17006 17007 28
13606 17006 17008 28
13607 17006 17009 28
13608 17006 17010 28
13609 17011 17012 28
13610 17011 17013 28
13611 17011 17014 28
13612 17011 17015 28
13613 17016 17017 28
13614 17016 17018 28
13615 17016 17019 28
13616 17016 17020 28
13617 17021 17022 28
13618 17021 17023 28
13619 17021 17024 28
13620 17021 17025 28
13621 17026 17027 28
13622 17026 17028 28
13623 17026 17029 28
13624 17026 17030 28
13625 17031 17032 28
13626 17031 17033 28
13627 17031 17034 28
13628 17031 17035 28
13629 17036 17037 28
13630 17036 17038 28
13631 17036 17039 28
13632 17036 17040 28
13633 17041 17042 28
13634 17041 17043 28
13635 17041 17044 28
13636 17041 17045 28
13637 17046 17047 28
13638 17046 17048 28
13639 17046 17049 28
13640 17046 17050 28
13641 17051 17052 28
13642 17051 17053 28
13643 17051 17054 28
13644 17051 17055 28
13645 17056 17057 28
13646 17056 17058 28
13647 17056 17059 28
13648 17056 17060 28
13649 17061 17062 28
13650 17061 17063 28
13651 17061 17064 28
13652 17061 17065 28
13653 17066 17067 28
13654 17066 17068 28
13655 17066 17069 28
13656 17066 17070 28
13657 17071 17072 28
13658 17071 17073 28
13659 17071 17074 28
13660 17071 17075 28
13661 17076 17077 28
13662 17076 17078 28
13663 17076 17079 28
13664 17076 17080 28
13665 17081 17082 28
13666 17081 17083 28
13667 17081 17084 28
13668 17081 17085 28
13669 17086 17087 28
13670 17086 17088 28
13671 17086 17089 28
13672 17086 17090 28
13673 17091 17092 28
13674 17091 17093 28
13675 17091 17094 28
13676 17091 17095 28
13677 17096 17097 28
13678 17096 17098 28
13679 17096 17099 28
13680 17096 17100 28
13681 17101 17102 28
13682 17101 17103 28
13683 17101 17104 28
13684 17101 17105 28
13685 17106 17107 28
13686 17106 17108 28
13687 17106 17109 28
13688 17106 17110 28
13689 17111 17112 28
13690 17111 17113 28
13691 17111 17114 28
13692 17111 17115 28
13693 17116 17117 28
13694 17116 17118 28
13695 17116 17119 28
13696 17116 17120 28
13697 17121 17122 28
13698 17121 17123 28
13699 17121 17124 28
13700 17121 17125 28
13701 17126 17127 28
13702 17126 17128 28
13703 17126 17129 28
13704 17126 17130 28
13705 17131 17132 28
13706 17131 17133 28
13707 17131 17134 28
13708 17131 17135 28
13709 17136 17137 28
13710 17136 17138 28
13711 17136 17139 28
13712 17136 17140 28
13713 17141 17142 28
13714 17141 17143 28
13715 17141 17144 28
13716 17141 17145 28
13717 17146 17147 28
13718 17146 17148 28
13719 17146 17149 28
13720 17146 17150 28
13721 17151 17152 28
13722 17151 17153 28
13723 17151 17154 28
13724 17151 17155 28
13725 17156 17157 28
13726 17156 17158 28
13727 17156 17159 28
13728 17156 17160 28
13729 17161 17162 28
13730 17161 17163 28
13731 17161 17164 28
13732 17161 17165 28
13733 17166 17167 28
13734 17166 17168 28
13735 17166 17169 28
13736 17166 17170 28
13737 17171 17172 28
13738 17171 17173 28
13739 17171 17174 28
13740 17171 17175 28
13741 17176 17177 28
13742 17176 17178 28
13743 17176 17179 28
13744 17176 17180 28
13745 17181 17182 28
13746 17181 17183 28
13747 17181 17184 28
13748 17181 17185 28
13749 17186 17187 28
13750 17186 17188 28
13751 17186 17189 28
13752 17186 17190 28
13753 17191 17192 28
13754 17191 17193 28
13755 17191 17194 28
13756 17191 17195 28
13757 17196 17197 28
13758 17196 17198 28
13759 17196 17199 28
13760 17196 17200 28
13761 17201 17202 28
13762 17201 17203 28
13763 17201 17204 28
13764 17201 17205 28
13765 17206 17207 28
13766 17206 17208 28
13767 17206 17209 28
13768 17206 17210 28
13769 17211 17212 28
13770 17211 17213 28
13771 17211 17214 28
13772 17211 17215 28
13773 17216 17217 28
13774 17216 17218 28
13775 17216 17219 28
13776 17216 17220 28
13777 17221 17222 28
13778 17221 17223 28
13779 17221 17224 28
13780 17221 17225 28
13781 17226 17227 28
13782 17226 17228 28
13783 17226 17229 28
13784 17226 17230 28
13785 17231 17232 28
13786 17231 17233 28
13787 17231 17234 28
13788 17231 17235 28
13789 17236 17237 28
13790 17236 17238 28
13791 17236 17239 28
13792 17236 17240 28
13793 17241 17242 28
13794 17241 17243 28
13795 17241 17244 28
13796 17241 17245 28
13797 17246 17247 28
13798 17246 17248 28
13799 17246 17249 28
13800 17246 17250 28
13801 17251 17252 28
13802 17251 17253 28
13803 17251 17254 28
13804 17251 17255 28
13805 17256 17257 28
13806 17256 17258 28
13807 17256 17259 28
13808 17256 17260 28
13809 17261 17262 28
13810 17261 17263 28
13811 17261 17264 28
13812 17261 17265 28
13813 17266 17267 28
13814 17266 17268 28
13815 17266 17269 28
13816 17266 17270 28
13817 17271 17272 28
13818 17271 17273 28
13819 17271 17274 28
13820 17271 17275 28
13821 17276 17277 28
13822 17276 17278 28
13823 17276 17279 28
13824 17276 17280 28
13825 17281 17282 28
13826 17281 17283 28
13827 17281 17284 28
13828 17281 17285 28
13829 17286 17287 28
13830 17286 17288 28
13831 17286 17289 28
13832 17286 17290 28
13833 17291 17292 28
13834 17291 17293 28
13835 17291 17294 28
13836 17291 17295 28
13837 17296 17297 28
13838 17296 17298 28
13839 17296 17299 28
13840 17296 17300 28
13841 17301 17302 28
13842 17301 17303 28
13843 17301 17304 28
13844 17301 17305 28
13845 17306 17307 28
13846 17306 17308 28
13847 17306 17309 28
13848 17306 17310 28
13849 17311 17312 28
13850 17311 17313 28
13851 17311 17314 28
13852 17311 17315 28
13853 17316 17317 28
13854 17316 17318 28
13855 17316 17319 28
13856 17316 17320 28
13857 17321 17322 28
13858 17321 17323 28
13859 17321 17324 28
13860 17321 17325 28
13861 17326 17327 28
13862 17326 17328 28
13863 17326 17329 28
13864 17326 17330 28
13865 17331 17332 28
13866 17331 17333 28
13867 17331 17334 28
13868 17331 17335 28
13869 17336 17337 28
13870 17336 17338 28
13871 17336 17339 28
13872 17336 17340 28
13873 17341 17342 28
13874 17341 17343 28
13875 17341 17344 28
13876 17341 17345 28
13877 17346 17347 28
13878 17346 17348 28
13879 17346 17349 28
13880 17346 17350 28
13881 17351 17352 28
13882 17351 17353 28
13883 17351 17354 28
13884 17351 17355 28
13885 17356 17357 28
13886 17356 17358 28
13887 17356 17359 28
13888 17356 17360 28
13889 17361 17362 28
13890 17361 17363 28
13891 17361 17364 28
13892 17361 17365 28
13893 17366 17367 28
13894 17366 17368 28
13895 17366 17369 28
13896 17366 17370 28
13897 17371 17372 28
13898 17371 17373 28
13899 17371 17374 28
13900 17371 17375 28
13901 17376 17377 28
13902 17376 17378 28
13903 17376 17379 28
13904 17376 17380 28
13905 17381 17382 28
13906 17381 17383 28
13907 17381 17384 28
13908 17381 17385 28
13909 17386 17387 28
13910 17386 17388 28
13911 17386 17389 28
13912 17386 17390 28
13913 17391 17392 28
13914 17391 17393 28
13915 17391 17394 28
13916 17391 17395 28
13917 17396 17397 28
13918 17396 17398 28
13919 17396 17399 28
13920 17396 17400 28
13921 17401 17402 28
13922 17401 17403 28
13923 17401 17404 28
13924 17401 17405 28
13925 17406 17407 28
13926 17406 17408 28
13927 17406 17409 28
13928 17406 17410 28
13929 17411 17412 28
13930 17411 17413 28
13931 17411 17414 28
13932 17411 17415 28
13933 17416 17417 28
13934 17416 17418 28
13935 17416 17419 28
13936 17416 17420 28
13937 17421 17422 28
13938 17421 17423 28
13939 17421 17424 28
13940 17421 17425 28
13941 17426 17427 28
13942 17426 17428 28
13943 17426 17429 28
13944 17426 17430 28
13945 17431 17432 28
13946 17431 17433 28
13947 17431 17434 28
13948 17431 17435 28
13949 17436 17437 28
13950 17436 17438 28
13951 17436 17439 28
13952 17436 17440 28
13953 17441 17442 28
13954 17441 17443 28
13955 17441 17444 28
13956 17441 17445 28
13957 17446 17447 28
13958 17446 17448 28
13959 17446 17449 28
13960 17446 17450 28
13961 17451 17452 28
13962 17451 17453 28
13963 17451 17454 28
13964 17451 17455 28
13965 17456 17457 28
13966 17456 17458 28
13967 17456 17459 28
13968 17456 17460 28
13969 17461 17462 28
13970 17461 17463 28
13971 17461 17464 28
13972 17461 17465 28
13973 17466 17467 28
13974 17466 17468 28
13975 17466 17469 28
13976 17466 17470 28
13977 17471 17472 28
13978 17471 17473 28
13979 17471 17474 28
13980 17471 17475 28
13981 17476 17477 28
13982 17476 17478 28
13983 17476 17479 28
13984 17476 17480 28
13985 17481 17482 28
13986 17481 17483 28
13987 17481 17484 28
13988 17481 17485 28
13989 17486 17487 28
13990 17486 17488 28
13991 17486 17489 28
13992 17486 17490 28
13993 17491 17492 28
13994 17491 17493 28
13995 17491 17494 28
13996 17491 17495 28
13997 17496 17497 28
13998 17496 17498 28
13999 17496 17499 28
14000 17496 17500 28
14001 17501 17502 28
14002 17501 17503 28
14003 17501 17504 28
14004 17501 17505 28
14005 17506 17507 28
14006 17506 17508 28
14007 17506 17509 28
14008 17506 17510 28
14009 17511 17512 28
14010 17511 17513 28
14011 17511 17514 28
14012 17511 17515 28
14013 17516 17517 28
14014 17516 17518 28
14015 17516 17519 28
14016 17516 17520 28
14017 17521 17522 28
14018 17521 17523 28
14019 17521 17524 28
14020 17521 17525 28
14021 17526 17527 28
14022 17526 17528 28
14023 17526 17529 28
14024 17526 17530 28
14025 17531 17532 28
14026 17531 17533 28
14027 17531 17534 28
14028 17531 17535 28
14029 17536 17537 28
14030 17536 17538 28
14031 17536 17539 28
14032 17536 17540 28
14033 17541 17542 28
14034 17541 17543 28
14035 17541 17544 28
14036 17541 17545 28
14037 17546 17547 28
14038 17546 17548 28
14039 17546 17549 28
14040 17546 17550 28
14041 17551 17552 28
14042 17551 17553 28
14043 17551 17554 28
14044 17551 17555 28
14045 17556 17557 28
14046 17556 17558 28
14047 17556 17559 28
14048 17556 17560 28
14049 17561 17562 28
14050 17561 17563 28
14051 17561 17564 28
14052 17561 17565 28
14053 17566 17567 28
14054 17566 17568 28
14055 17566 17569 28
14056 17566 17570 28
14057 17571 17572 28
14058 17571 17573 28
14059 17571 17574 28
14060 17571 17575 28
14061 17576 17577 28
14062 17576 17578 28
14063 17576 17579 28
14064 17576 17580 28
14065 17581 17582 28
14066 17581 17583 28
14067 17581 17584 28
14068 17581 17585 28
14069 17586 17587 28
14070 17586 17588 28
14071 17586 17589 28
14072 17586 17590 28
14073 17591 17592 28
14074 17591 17593 28
14075 17591 17594 28
14076 17591 17595 28
14077 17596 17597 28
14078 17596 17598 28
14079 17596 17599 28
14080 17596 17600 28
14081 17601 17602 28
14082 17601 17603 28
14083 17601 17604 28
14084 17601 17605 28
14085 17606 17607 28
14086 17606 17608 28
14087 17606 17609 28
14088 17606 17610 28
14089 17611 17612 28
14090 17611 17613 28
14091 17611 17614 28
14092 17611 17615 28
14093 17616 17617 28
14094 17616 17618 28
14095 17616 17619 28
14096 17616 17620 28
14097 17621 17622 28
14098 17621 17623 28
14099 17621 17624 28
14100 17621 17625 28
14101 17626 17627 28
14102 17626 17628 28
14103 17626 17629 28
14104 17626 17630 28
14105 17631 17632 28
14106 17631 17633 28
14107 17631 17634 28
14108 17631 17635 28
14109 17636 17637 28
14110 17636 17638 28
14111 17636 17639 28
14112 17636 17640 28
14113 17641 17642 28
14114 17641 17643 28
14115 17641 17644 28
14116 17641 17645 28
14117 17646 17647 28
14118 17646 17648 28
14119 17646 17649 28
14120 17646 17650 28
14121 17651 17652 28
14122 17651 17653 28
14123 17651 17654 28
14124 17651 17655 28
14125 17656 17657 28
14126 17656 17658 28
14127 17656 17659 28
14128 17656 17660 28
14129 17661 17662 28
14130 17661 17663 28
14131 17661 17664 28
14132 17661 17665 28
14133 17666 17667 28
14134 17666 17668 28
14135 17666 17669 28
14136 17666 17670 28
14137 17671 17672 28
14138 17671 17673 28
14139 17671 17674 28
14140 17671 17675 28
14141 17676 17677 28
14142 17676 17678 28
14143 17676 17679 28
14144 17676 17680 28
14145 17681 17682 28
14146 17681 17683 28
14147 17681 17684 28
14148 17681 17685 28
14149 17686 17687 28
14150 17686 17688 28
14151 17686 17689 28
14152 17686 17690 28
14153 17691 17692 28
14154 17691 17693 28
14155 17691 17694 28
14156 17691 17695 28
14157 17696 17697 28
14158 17696 17698 28
14159 17696 17699 28
14160 17696 17700 28
14161 17701 17702 28
14162 17701 17703 28
14163 17701 17704 28
14164 17701 17705 28
14165 17706 17707 28
14166 17706 17708 28
14167 17706 17709 28
14168 17706 17710 28
14169 17711 17712 28
14170 17711 17713 28
14171 17711 17714 28
14172 17711 17715 28
14173 17716 17717 28
14174 17716 17718 28
14175 17716 17719 28
14176 17716 17720 28
14177 17721 17722 28
14178 17721 17723 28
14179 17721 17724 28
14180 17721 17725 28
14181 17726 17727 28
14182 17726 17728 28
14183 17726 17729 28
14184 17726 17730 28
14185 17731 17732 28
14186 17731 17733 28
14187 17731 17734 28
14188 17731 17735 28
14189 17736 17737 28
14190 17736 17738 28
14191 17736 17739 28
14192 17736 17740 28
14193 17741 17742 28
14194 17741 17743 28
14195 17741 17744 28
14196 17741 17745 28
14197 17746 17747 28
14198 17746 17748 28
14199 17746 17749 28
14200 17746 17750 28
14201 17751 17752 28
14202 17751 17753 28
14203 17751 17754 28
14204 17751 17755 28
14205 17756 17757 28
14206 17756 17758 28
14207 17756 17759 28
14208 17756 17760 28
14209 17761 17762 28
14210 17761 17763 28
14211 17761 17764 28
14212 17761 17765 28
14213 17766 17767 28
14214 17766 17768 28
14215 17766 17769 28
14216 17766 17770 28
14217 17771 17772 28
14218 17771 17773 28
14219 17771 17774 28
14220 17771 17775 28
14221 17776 17777 28
14222 17776 17778 28
14223 17776 17779 28
14224 17776 17780 28
14225 17781 17782 28
14226 17781 17783 28
14227 17781 17784 28
14228 17781 17785 28
14229 17786 17787 28
14230 17786 17788 28
14231 17786 17789 28
14232 17786 17790 28
14233 17791 17792 28
14234 17791 17793 28
14235 17791 17794 28
14236 17791 17795 28
14237 17796 17797 28
14238 17796 17798 28
14239 17796 17799 28
14240 17796 17800 28
14241 17801 17802 28
14242 17801 17803 28
14243 17801 17804 28
14244 17801 17805 28
14245 17806 17807 28
14246 17806 17808 28
14247 17806 17809 28
14248 17806 17810 28
14249 17811 17812 28
14250 17811 17813 28
14251 17811 17814 28
14252 17811 17815 28
14253 17816 17817 28
14254 17816 17818 28
14255 17816 17819 28
14256 17816 17820 28
14257 17821 17822 28
14258 17821 17823 28
14259 17821 17824 28
14260 17821 17825 28
14261 17826 17827 28
14262 17826 17828 28
14263 17826 17829 28
14264 17826 17830 28
14265 17831 17832 28
14266 17831 17833 28
14267 17831 17834 28
14268 17831 17835 28
14269 17836 17837 28
14270 17836 17838 28
14271 17836 17839 28
14272 17836 17840 28
14273 17841 17842 28
14274 17841 17843 28
14275 17841 17844 28
14276 17841 17845 28
14277 17846 17847 28
14278 17846 17848 28
14279 17846 17849 28
14280 17846 17850 28
14281 17851 17852 28
14282 17851 17853 28
14283 17851 17854 28
14284 17851 17855 28
14285 17856 17857 28
14286 17856 17858 28
14287 17856 17859 28
14288 17856 17860 28
14289 17861 17862 28
14290 17861 17863 28
14291 17861 17864 28
14292 17861 17865 28
14293 17866 17867 28
14294 17866 17868 28
14295 17866 17869 28
14296 17866 17870 28
14297 17871 17872 28
14298 17871 17873 28
14299 17871 17874 28
14300 17871 17875 28
14301 17876 17877 28
14302 17876 17878 28
14303 17876 17879 28
14304 17876 17880 28
14305 17881 17882 28
14306 17881 17883 28
14307 17881 17884 28
14308 17881 17885 28
14309 17886 17887 28
14310 17886 17888 28
14311 17886 17889 28
14312 17886 17890 28
14313 17891 17892 28
14314 17891 17893 28
14315 17891 17894 28
14316 17891 17895 28
14317 17896 17897 28
14318 17896 17898 28
14319 17896 17899 28
14320 17896 17900 28
14321 17901 17902 28
14322 17901 17903 28
14323 17901 17904 28
14324 17901 17905 28
14325 17906 17907 28
14326 17906 17908 28
14327 17906 17909 28
14328 17906 17910 28
14329 17911 17912 28
14330 17911 17913 28
14331 17911 17914 28
14332 17911 17915 28
14333 17916 17917 28
14334 17916 17918 28
14335 17916 17919 28
14336 17916 17920 28
14337 17921 17922 28
14338 17921 17923 28
14339 17921 17924 28
14340 17921 17925 28
14341 17926 17927 28
14342 17926 17928 28
14343 17926 17929 28
14344 17926 17930 28
14345 17931 17932 28
14346 17931 17933 28
14347 17931 17934 28
14348 17931 17935 28
14349 17936 17937 28
14350 17936 17938 28
14351 17936 17939 28
14352 17936 17940 28
14353 17941 17942 28
14354 17941 17943 28
14355 17941 17944 28
14356 17941 17945 28
14357 17946 17947 28
14358 17946 17948 28
14359 17946 17949 28
14360 17946 17950 28
14361 17951 17952 28
14362 17951 17953 28
14363 17951 17954 28
14364 17951 17955 28
14365 17956 17957 28
14366 17956 17958 28
14367 17956 17959 28
14368 17956 17960 28
14369 17961 17962 28
14370 17961 17963 28
14371 17961 17964 28
14372 17961 17965 28
14373 17966 17967 28
14374 17966 17968 28
14375 17966 17969 28
14376 17966 17970 28
14377 17971 17972 28
14378 17971 17973 28
14379 17971 17974 28
14380 17971 17975 28
14381 17976 17977 28
14382 17976 17978 28
14383 17976 17979 28
14384 17976 17980 28
14385 17981 17982 28
14386 17981 17983 28
14387 17981 17984 28
14388 17981 17985 28
14389 17986 17987 28
14390 17986 17988 28
14391 17986 17989 28
14392 17986 17990 28
14393 17991 17992 28
14394 17991 17993 28
14395 17991 17994 28
14396 17991 17995 28
14397 17996 17997 28
14398 17996 17998 28
14399 17996 17999 28
14400 17996 18000 28
14401 18001 18002 28
14402 18001 18003 28
14403 18001 18004 28
14404 18001 18005 28
14405 18006 18007 28
14406 18006 18008 28
14407 18006 18009 28
14408 18006 18010 28
14409 18011 18012 28
14410 18011 18013 28
14411 18011 18014 28
14412 18011 18015 28
14413 18016 18017 28
14414 18016 18018 28
14415 18016 18019 28
14416 18016 18020 28
14417 18021 18022 28
14418 18021 18023 28
14419 18021 18024 28
14420 18021 18025 28
14421 18026 18027 28
14422 18026 18028 28
14423 18026 18029 28
14424 18026 18030 28
14425 18031 18032 28
14426 18031 18033 28
14427 18031 18034 28
14428 18031 18035 28
14429 18036 18037 28
14430 18036 18038 28
14431 18036 18039 28
14432 18036 18040 28
14433 18041 18042 28
14434 18041 18043 28
14435 18041 18044 28
14436 18041 18045 28
14437 18046 18047 28
14438 18046 18048 28
14439 18046 18049 28
14440 18046 18050 28
14441 18051 18052 28
14442 18051 18053 28
14443 18051 18054 28
14444 18051 18055 28
14445 18056 18057 28
14446 18056 18058 28
14447 18056 18059 28
14448 18056 18060 28
14449 18061 18062 28
14450 18061 18063 28
14451 18061 18064 28
14452 18061 18065 28
14453 18066 18067 28
14454 18066 18068 28
14455 18066 18069 28
14456 18066 18070 28
14457 18071 18072 28
14458 18071 18073 28
14459 18071 18074 28
14460 18071 18075 28
14461 18076 18077 28
14462 18076 18078 28
14463 18076 18079 28
14464 18076 18080 28
14465 18081 18082 28
14466 18081 18083 28
14467 18081 18084 28
14468 18081 18085 28
14469 18086 18087 28
14470 18086 18088 28
14471 18086 18089 28
14472 18086 18090 28
14473 18091 18092 28
14474 18091 18093 28
14475 18091 18094 28
14476 18091 18095 28
14477 18096 18097 28
14478 18096 18098 28
14479 18096 18099 28
14480 18096 18100 28
14481 18101 18102 28
14482 18101 18103 28
14483 18101 18104 28
14484 18101 18105 28
14485 18106 18107 28
14486 18106 18108 28
14487 18106 18109 28
14488 18106 18110 28
14489 18111 18112 28
14490 18111 18113 28
14491 18111 18114 28
14492 18111 18115 28
14493 18116 18117 28
14494 18116 18118 28
14495 18116 18119 28
14496 18116 18120 28
14497 18121 18122 28
14498 18121 18123 28
14499 18121 18124 28
14500 18121 18125 28
14501 18126 18127 28
14502 18126 18128 28
14503 18126 18129 28
14504 18126 18130 28
14505 18131 18132 28
14506 18131 18133 28
14507 18131 18134 28
14508 18131 18135 28
14509 18136 18137 28
14510 18136 18138 28
14511 18136 18139 28
14512 18136 18140 28
14513 18141 18142 28
14514 18141 18143 28
14515 18141 18144 28
14516 18141 18145 28
14517 18146 18147 28
14518 18146 18148 28
14519 18146 18149 28
14520 18146 18150 28
14521 18151 18152 28
14522 18151 18153 28
14523 18151 18154 28
14524 18151 18155 28
14525 18156 18157 28
14526 18156 18158 28
14527 18156 18159 28
14528 18156 18160 28
14529 18161 18162 28
14530 18161 18163 28
14531 18161 18164 28
14532 18161 18165 28
14533 18166 18167 28
14534 18166 18168 28
14535 18166 18169 28
14536 18166 18170 28
14537 18171 18172 28
14538 18171 18173 28
14539 18171 18174 28
14540 18171 18175 28
14541 18176 18177 28
14542 18176 18178 28
14543 18176 18179 28
14544 18176 18180 28
14545 18181 18182 28
14546 18181 18183 28
14547 18181 18184 28
14548 18181 18185 28
14549 18186 18187 28
14550 18186 18188 28
14551 18186 18189 28
14552 18186 18190 28
14553 18191 18192 28
14554 18191 18193 28
14555 18191 18194 28
14556 18191 18195 28
14557 18196 18197 28
14558 18196 18198 28
14559 18196 18199 28
14560 18196 18200 28
14561 18201 18202 28
14562 18201 18203 28
14563 18201 18204 28
14564 18201 18205 28
14565 18206 18207 28
14566 18206 18208 28
14567 18206 18209 28
14568 18206 18210 28
14569 18211 18212 28
14570 18211 18213 28
14571 18211 18214 28
14572 18211 18215 28
14573 18216 18217 28
14574 18216 18218 28
14575 18216 18219 28
14576 18216 18220 28
14577 18221 18222 28
14578 18221 18223 28
14579 18221 18224 28
14580 18221 18225 28
14581 18226 18227 28
14582 18226 18228 28
14583 18226 18229 28
14584 18226 18230 28
14585 18231 18232 28
14586 18231 18233 28
14587 18231 18234 28
14588 18231 18235 28
14589 18236 18237 28
14590 18236 18238 28
14591 18236 18239 28
14592 18236 18240 28
14593 18241 18242 28
14594 18241 18243 28
14595 18241 18244 28
14596 18241 18245 28
14597 18246 18247 28
14598 18246 18248 28
14599 18246 18249 28
14600 18246 18250 28
14601 18251 18252 28
14602 18251 18253 28
14603 18251 18254 28
14604 18251 18255 28
14605 18256 18257 28
14606 18256 18258 28
14607 18256 18259 28
14608 18256 18260 28
14609 18261 18262 28
14610 18261 18263 28
14611 18261 18264 28
14612 18261 18265 28
14613 18266 18267 28
14614 18266 18268 28
14615 18266 18269 28
14616 18266 18270 28
14617 18271 18272 28
14618 18271 18273 28
14619 18271 18274 28
14620 18271 18275 28
14621 18276 18277 28
14622 18276 18278 28
14623 18276 18279 28
14624 18276 18280 28
14625 18281 18282 28
14626 18281 18283 28
14627 18281 18284 28
14628 18281 18285 28
14629 18286 18287 28
14630 18286 18288 28
14631 18286 18289 28
14632 18286 18290 28
14633 18291 18292 28
14634 18291 18293 28
14635 18291 18294 28
14636 18291 18295 28
14637 18296 18297 28
14638 18296 18298 28
14639 18296 18299 28
14640 18296 18300 28
14641 18301 18302 28
14642 18301 18303 28
14643 18301 18304 28
14644 18301 18305 28
14645 18306 18307 28
14646 18306 18308 28
14647 18306 18309 28
14648 18306 18310 28
14649 18311 18312 28
14650 18311 18313 28
14651 18311 18314 28
14652 18311 18315 28
14653 18316 18317 28
14654 18316 18318 28
14655 18316 18319 28
14656 18316 18320 28
14657 18321 18322 28
14658 18321 18323 28
14659 18321 18324 28
14660 18321 18325 28
14661 18326 18327 28
14662 18326 18328 28
14663 18326 18329 28
14664 18326 18330 28
14665 18331 18332 28
14666 18331 18333 28
14667 18331 18334 28
14668 18331 18335 28
14669 18336 18337 28
14670 18336 18338 28
14671 18336 18339 28
14672 18336 18340 28
14673 18341 18342 28
14674 18341 18343 28
14675 18341 18344 28
14676 18341 18345 28
14677 18346 18347 28
14678 18346 18348 28
14679 18346 18349 28
14680 18346 18350 28
14681 18351 18352 28
14682 18351 18353 28
14683 18351 18354 28
14684 18351 18355 28
14685 18356 18357 28
14686 18356 18358 28
14687 18356 18359 28
14688 18356 18360 28
14689 18361 18362 28
14690 18361 18363 28
14691 18361 18364 28
14692 18361 18365 28
14693 18366 18367 28
14694 18366 18368 28
14695 18366 18369 28
14696 18366 18370 28
14697 18371 18372 28
14698 18371 18373 28
14699 18371 18374 28
14700 18371 18375 28
14701 18376 18377 28
14702 18376 18378 28
14703 18376 18379 28
14704 18376 18380 28
14705 18381 18382 28
14706 18381 18383 28
14707 18381 18384 28
14708 18381 18385 28
14709 18386 18387 28
14710 18386 18388 28
14711 18386 18389 28
14712 18386 18390 28
14713 18391 18392 28
14714 18391 18393 28
14715 18391 18394 28
14716 18391 18395 28
14717 18396 18397 28
14718 18396 18398 28
14719 18396 18399 28
14720 18396 18400 28
14721 18401 18402 28
14722 18401 18403 28
14723 18401 18404 28
14724 18401 18405 28
14725 18406 18407 28
14726 18406 18408 28
14727 18406 18409 28
14728 18406 18410 28
14729 18411 18412 28
14730 18411 18413 28
14731 18411 18414 28
14732 18411 18415 28
14733 18416 18417 28
14734 18416 18418 28
14735 18416 18419 28
14736 18416 18420 28
14737 18421 18422 28
14738 18421 18423 28
14739 18421 18424 28
14740 18421 18425 28
14741 18426 18427 28
14742 18426 18428 28
14743 18426 18429 28
14744 18426 18430 28
14745 18431 18432 28
14746 18431 18433 28
14747 18431 18434 28
14748 18431 18435 28
14749 18436 18437 28
14750 18436 18438 28
14751 18436 18439 28
14752 18436 18440 28
14753 18441 18442 28
14754 18441 18443 28
14755 18441 18444 28
14756 18441 18445 28
14757 18446 18447 28
14758 18446 18448 28
14759 18446 18449 28
14760 18446 18450 28
14761 18451 18452 28
14762 18451 18453 28
14763 18451 18454 28
14764 18451 18455 28
14765 18456 18457 28
14766 18456 18458 28
14767 18456 18459 28
14768 18456 18460 28
14769 18461 18462 28
14770 18461 18463 28
14771 18461 18464 28
14772 18461 18465 28
14773 18466 18467 28
14774 18466 18468 28
14775 18466 18469 28
14776 18466 18470 28
14777 18471 18472 28
14778 18471 18473 28
14779 18471 18474 28
14780 18471 18475 28
14781 18476 18477 28
14782 18476 18478 28
14783 18476 18479 28
14784 18476 18480 28
14785 18481 18482 28
14786 18481 18483 28
14787 18481 18484 28
14788 18481 18485 28
14789 18486 18487 28
14790 18486 18488 28
14791 18486 18489 28
14792 18486 18490 28
14793 18491 18492 28
14794 18491 18493 28
14795 18491 18494 28
14796 18491 18495 28
14797 18496 18497 28
14798 18496 18498 28
14799 18496 18499 28
14800 18496 18500 28
14801 18501 18502 28
14802 18501 18503 28
14803 18501 18504 28
14804 18501 18505 28
14805 18506 18507 28
14806 18506 18508 28
14807 18506 18509 28
14808 18506 18510 28
14809 18511 18512 28
14810 18511 18513 28
14811 18511 18514 28
14812 18511 18515 28
14813 18516 18517 28
14814 18516 18518 28
14815 18516 18519 28
14816 18516 18520 28
14817 18521 18522 28
14818 18521 18523 28
14819 18521 18524 28
14820 18521 18525 28
14821 18526 18527 28
14822 18526 18528 28
14823 18526 18529 28
14824 18526 18530 28
14825 18531 18532 28
14826 18531 18533 28
14827 18531 18534 28
14828 18531 18535 28
14829 18536 18537 28
14830 18536 18538 28
14831 18536 18539 28
14832 18536 18540 28
14833 18541 18542 28
14834 18541 18543 28
14835 18541 18544 28
14836 18541 18545 28
14837 18546 18547 28
14838 18546 18548 28
14839 18546 18549 28
14840 18546 18550 28
14841 18551 18552 28
14842 18551 18553 28
14843 18551 18554 28
14844 18551 18555 28
14845 18556 18557 28
14846 18556 18558 28
14847 18556 18559 28
14848 18556 18560 28
14849 18561 18562 28
14850 18561 18563 28
14851 18561 18564 28
14852 18561 18565 28
14853 18566 18567 28
14854 18566 18568 28
14855 18566 18569 28
14856 18566 18570 28
14857 18571 18572 28
14858 18571 18573 28
14859 18571 18574 28
14860 18571 18575 28
14861 18576 18577 28
14862 18576 18578 28
14863 18576 18579 28
14864 18576 18580 28
14865 18581 18582 28
14866 18581 18583 28
14867 18581 18584 28
14868 18581 18585 28
14869 18586 18587 28
14870 18586 18588 28
14871 18586 18589 28
14872 18586 18590 28
14873 18591 18592 28
14874 18591 18593 28
14875 18591 18594 28
14876 18591 18595 28
14877 18596 18597 28
14878 18596 18598 28
14879 18596 18599 28
14880 18596 18600 28
14881 18601 18602 28
14882 18601 18603 28
14883 18601 18604 28
14884 18601 18605 28
14885 18606 18607 28
14886 18606 18608 28
14887 18606 18609 28
14888 18606 18610 28
14889 18611 18612 28
14890 18611 18613 28
14891 18611 18614 28
14892 18611 18615 28
14893 18616 18617 28
14894 18616 18618 28
14895 18616 18619 28
14896 18616 18620 28
14897 18621 18622 28
14898 18621 18623 28
14899 18621 18624 28
14900 18621 18625 28
14901 18626 18627 28
14902 18626 18628 28
14903 18626 18629 28
14904 18626 18630 28
14905 18631 18632 28
14906 18631 18633 28
14907 18631 18634 28
14908 18631 18635 28
14909 18636 18637 28
14910 18636 18638 28
14911 18636 18639 28
14912 18636 18640 28
14913 18641 18642 28
14914 18641 18643 28
14915 18641 18644 28
14916 18641 18645 28
14917 18646 18647 28
14918 18646 18648 28
14919 18646 18649 28
14920 18646 18650 28
14921 18651 18652 28
14922 18651 18653 28
14923 18651 18654 28
14924 18651 18655 28
14925 18656 18657 28
14926 18656 18658 28
14927 18656 18659 28
14928 18656 18660 28
14929 18661 18662 28
14930 18661 18663 28
14931 18661 18664 28
14932 18661 18665 28
14933 18666 18667 28
14934 18666 18668 28
14935 18666 18669 28
14936 18666 18670 28
14937 18671 18672 28
14938 18671 18673 28
14939 18671 18674 28
14940 18671 18675 28
14941 18676 18677 28
14942 18676 18678 28
14943 18676 18679 28
14944 18676 18680 28
14945 18681 18682 28
14946 18681 18683 28
14947 18681 18684 28
14948 18681 18685 28
14949 18686 18687 28
14950 18686 18688 28
14951 18686 18689 28
14952 18686 18690 28
14953 18691 18692 28
14954 18691 18693 28
14955 18691 18694 28
14956 18691 18695 28
14957 18696 18697 28
14958 18696 18698 28
14959 18696 18699 28
14960 18696 18700 28
14961 18701 18702 28
14962 18701 18703 28
14963 18701 18704 28
14964 18701 18705 28
14965 18706 18707 28
14966 18706 18708 28
14967 18706 18709 28
14968 18706 18710 28
14969 18711 18712 28
14970 18711 18713 28
14971 18711 18714 28
14972 18711 18715 28
14973 18716 18717 28
14974 18716 18718 28
14975 18716 18719 28
14976 18716 18720 28
14977 18721 18722 28
14978 18721 18723 28
14979 18721 18724 28
14980 18721 18725 28
14981 18726 18727 28
14982 18726 18728 28
14983 18726 18729 28
14984 18726 18730 28
14985 18731 18732 28
14986 18731 18733 28
14987 18731 18734 28
14988 18731 18735 28
14989 18736 18737 28
14990 18736 18738 28
14991 18736 18739 28
14992 18736 18740 28
14993 18741 18742 28
14994 18741 18743 28
14995 18741 18744 28
14996 18741 18745 28
14997 18746 18747 28
14998 18746 18748 28
14999 18746 18749 28
15000 18746 18750 28
15001 18751 18752 28
15002 18751 18753 28
15003 18751 18754 28
15004 18751 18755 28
15005 18756 18757 28
15006 18756 18758 28
15007 18756 18759 28
15008 18756 18760 28
15009 18761 18762 28
15010 18761 18763 28
15011 18761 18764 28
15012 18761 18765 28
15013 18766 18767 28
15014 18766 18768 28
15015 18766 18769 28
15016 18766 18770 28
15017 18771 18772 28
15018 18771 18773 28
15019 18771 18774 28
15020 18771 18775 28
15021 18776 18777 28
15022 18776 18778 28
15023 18776 18779 28
15024 18776 18780 28
15025 18781 18782 28
15026 18781 18783 28
15027 18781 18784 28
15028 18781 18785 28
15029 18786 18787 28
15030 18786 18788 28
15031 18786 18789 28
15032 18786 18790 28
15033 18791 18792 28
15034 18791 18793 28
15035 18791 18794 28
15036 18791 18795 28
15037 18796 18797 28
15038 18796 18798 28
15039 18796 18799 28
15040 18796 18800 28
15041 18801 18802 28
15042 18801 18803 28
15043 18801 18804 28
15044 18801 18805 28
15045 18806 18807 28
15046 18806 18808 28
15047 18806 18809 28
15048 18806 18810 28
15049 18811 18812 28
15050 18811 18813 28
15051 18811 18814 28
15052 18811 18815 28
15053 18816 18817 28
15054 18816 18818 28
15055 18816 18819 28
15056 18816 18820 28
15057 18821 18822 28
15058 18821 18823 28
15059 18821 18824 28
15060 18821 18825 28
15061 18826 18827 28
15062 18826 18828 28
15063 18826 18829 28
15064 18826 18830 28
15065 18831 18832 28
15066 18831 18833 28
15067 18831 18834 28
15068 18831 18835 28
15069 18836 18837 28
15070 18836 18838 28
15071 18836 18839 28
15072 18836 18840 28
15073 18841 18842 28
15074 18841 18843 28
15075 18841 18844 28
15076 18841 18845 28
15077 18846 18847 28
15078 18846 18848 28
15079 18846 18849 28
15080 18846 18850 28
15081 18851 18852 28
15082 18851 18853 28
15083 18851 18854 28
15084 18851 18855 28
15085 18856 18857 28
15086 18856 18858 28
15087 18856 18859 28
15088 18856 18860 28
15089 18861 18862 28
15090 18861 18863 28
15091 18861 18864 28
15092 18861 18865 28
15093 18866 18867 28
15094 18866 18868 28
15095 18866 18869 28
15096 18866 18870 28
15097 18871 18872 28
15098 18871 18873 28
15099 18871 18874 28
15100 18871 18875 28
15101 18876 18877 28
15102 18876 18878 28
15103 18876 18879 28
15104 18876 18880 28
15105 18881 18882 28
15106 18881 18883 28
15107 18881 18884 28
15108 18881 18885 28
15109 18886 18887 28
15110 18886 18888 28
15111 18886 18889 28
15112 18886 18890 28
15113 18891 18892 28
15114 18891 18893 28
15115 18891 18894 28
15116 18891 18895 28
15117 18896 18897 28
15118 18896 18898 28
15119 18896 18899 28
15120 18896 18900 28
15121 18901 18902 28
15122 18901 18903 28
15123 18901 18904 28
15124 18901 18905 28
15125 18906 18907 28
15126 18906 18908 28
15127 18906 18909 28
15128 18906 18910 28
15129 18911 18912 28
15130 18911 18913 28
15131 18911 18914 28
15132 18911 18915 28
15133 18916 18917 28
15134 18916 18918 28
15135 18916 18919 28
15136 18916 18920 28
15137 18921 18922 28
15138 18921 18923 28
15139 18921 18924 28
15140 18921 18925 28
15141 18926 18927 28
15142 18926 18928 28
15143 18926 18929 28
15144 18926 18930 28
15145 18931 18932 28
15146 18931 18933 28
15147 18931 18934 28
15148 18931 18935 28
15149 18936 18937 28
15150 18936 18938 28
15151 18936 18939 28
15152 18936 18940 28
15153 18941 18942 28
15154 18941 18943 28
15155 18941 18944 28
15156 18941 18945 28
15157 18946 18947 28
15158 18946 18948 28
15159 18946 18949 28
15160 18946 18950 28
15161 18951 18952 28
15162 18951 18953 28
15163 18951 18954 28
15164 18951 18955 28
15165 18956 18957 28
15166 18956 18958 28
15167 18956 18959 28
15168 18956 18960 28
15169 18961 18962 28
15170 18961 18963 28
15171 18961 18964 28
15172 18961 18965 28
15173 18966 18967 28
15174 18966 18968 28
15175 18966 18969 28
15176 18966 18970 28
15177 18971 18972 28
15178 18971 18973 28
15179 18971 18974 28
15180 18971 18975 28
15181 18976 18977 28
15182 18976 18978 28
15183 18976 18979 28
15184 18976 18980 28
15185 18981 18982 28
15186 18981 18983 28
15187 18981 18984 28
15188 18981 18985 28
15189 18986 18987 28
15190 18986 18988 28
15191 18986 18989 28
15192 18986 18990 28
15193 18991 18992 28
15194 18991 18993 28
15195 18991 18994 28
15196 18991 18995 28
15197 18996 18997 28
15198 18996 18998 28
15199 18996 18999 28
15200 18996 19000 28
15201 19001 19002 28
15202 19001 19003 28
15203 19001 19004 28
15204 19001 19005 28
15205 19006 19007 28
15206 19006 19008 28
15207 19006 19009 28
15208 19006 19010 28
15209 19011 19012 28
15210 19011 19013 28
15211 19011 19014 28
15212 19011 19015 28
15213 19016 19017 28
15214 19016 19018 28
15215 19016 19019 28
15216 19016 19020 28
15217 19021 19022 28
15218 19021 19023 28
15219 19021 19024 28
15220 19021 19025 28
15221 19026 19027 28
15222 19026 19028 28
15223 19026 19029 28
15224 19026 19030 28
15225 19031 19032 28
15226 19031 19033 28
15227 19031 19034 28
15228 19031 19035 28
15229 19036 19037 28
15230 19036 19038 28
15231 19036 19039 28
15232 19036 19040 28
15233 19041 19042 28
15234 19041 19043 28
15235 19041 19044 28
15236 19041 19045 28
15237 19046 19047 28
15238 19046 19048 28
15239 19046 19049 28
15240 19046 19050 28
15241 19051 19052 28
15242 19051 19053 28
15243 19051 19054 28
15244 19051 19055 28
15245 19056 19057 28
15246 19056 19058 28
15247 19056 19059 28
15248 19056 19060 28
15249 19061 19062 28
15250 19061 19063 28
15251 19061 19064 28
15252 19061 19065 28
15253 19066 19067 28
15254 19066 19068 28
15255 19066 19069 28
15256 19066 19070 28
15257 19071 19072 28
15258 19071 19073 28
15259 19071 19074 28
15260 19071 19075 28
15261 19076 19077 28
15262 19076 19078 28
15263 19076 19079 28
15264 19076 19080 28
15265 19081 19082 28
15266 19081 19083 28
15267 19081 19084 28
15268 19081 19085 28
15269 19086 19087 28
15270 19086 19088 28
15271 19086 19089 28
15272 19086 19090 28
15273 19091 19092 28
15274 19091 19093 28
15275 19091 19094 28
15276 19091 19095 28
15277 19096 19097 28
15278 19096 19098 28
15279 19096 19099 28
15280 19096 19100 28
15281 19101 19102 28
15282 19101 19103 28
15283 19101 19104 28
15284 19101 19105 28
15285 19106 19107 28
15286 19106 19108 28
15287 19106 19109 28
15288 19106 19110 28
15289 19111 19112 28
15290 19111 19113 28
15291 19111 19114 28
15292 19111 19115 28
15293 19116 19117 28
15294 19116 19118 28
15295 19116 19119 28
15296 19116 19120 28
15297 19121 19122 28
15298 19121 19123 28
15299 19121 19124 28
15300 19121 19125 28
15301 19126 19127 28
15302 19126 19128 28
15303 19126 19129 28
15304 19126 19130 28
15305 19131 19132 28
15306 19131 19133 28
15307 19131 19134 28
15308 19131 19135 28
15309 19136 19137 28
15310 19136 19138 28
15311 19136 19139 28
15312 19136 19140 28
15313 19141 19142 28
15314 19141 19143 28
15315 19141 19144 28
15316 19141 19145 28
15317 19146 19147 28
15318 19146 19148 28
15319 19146 19149 28
15320 19146 19150 28
15321 19151 19152 28
15322 19151 19153 28
15323 19151 19154 28
15324 19151 19155 28
15325 19156 19157 28
15326 19156 19158 28
15327 19156 19159 28
15328 19156 19160 28
15329 19161 19162 28
15330 19161 19163 28
15331 19161 19164 28
15332 19161 19165 28
15333 19166 19167 28
15334 19166 19168 28
15335 19166 19169 28
15336 19166 19170 28
15337 19171 19172 28
15338 19171 19173 28
15339 19171 19174 28
15340 19171 19175 28
15341 19176 19177 28
15342 19176 19178 28
15343 19176 19179 28
15344 19176 19180 28
15345 19181 19182 28
15346 19181 19183 28
15347 19181 19184 28
15348 19181 19185 28
15349 19186 19187 28
15350 19186 19188 28
15351 19186 19189 28
15352 19186 19190 28
15353 19191 19192 28
15354 19191 19193 28
15355 19191 19194 28
15356 19191 19195 28
15357 19196 19197 28
15358 19196 19198 28
15359 19196 19199 28
15360 19196 19200 28
15361 19201 19202 28
15362 19201 19203 28
15363 19201 19204 28
15364 19201 19205 28
15365 19206 19207 28
15366 19206 19208 28
15367 19206 19209 28
15368 19206 19210 28
15369 19211 19212 28
15370 19211 19213 28
15371 19211 19214 28
15372 19211 19215 28
15373 19216 19217 28
15374 19216 19218 28
15375 19216 19219 28
15376 19216 19220 28
15377 19221 19222 28
15378 19221 19223 28
15379 19221 19224 28
15380 19221 19225 28
15381 19226 19227 28
15382 19226 19228 28
15383 19226 19229 28
15384 19226 19230 28
15385 19231 19232 28
15386 19231 19233 28
15387 19231 19234 28
15388 19231 19235 28
15389 19236 19237 28
15390 19236 19238 28
15391 19236 19239 28
15392 19236 19240 28
15393 19241 19242 28
15394 19241 19243 28
15395 19241 19244 28
15396 19241 19245 28
15397 19246 19247 28
15398 19246 19248 28
15399 19246 19249 28
15400 19246 19250 28
15401 19251 19252 28
15402 19251 19253 28
15403 19251 19254 28
15404 19251 19255 28
15405 19256 19257 28
15406 19256 19258 28
15407 19256 19259 28
15408 19256 19260 28
15409 19261 19262 28
15410 19261 19263 28
15411 19261 19264 28
15412 19261 19265 28
15413 19266 19267 28
15414 19266 19268 28
15415 19266 19269 28
15416 19266 19270 28
15417 19271 19272 28
15418 19271 19273 28
15419 19271 19274 28
15420 19271 19275 28
15421 19276 19277 28
15422 19276 19278 28
15423 19276 19279 28
15424 19276 19280 28
15425 19281 19282 28
15426 19281 19283 28
15427 19281 19284 28
15428 19281 19285 28
15429 19286 19287 28
15430 19286 19288 28
15431 19286 19289 28
15432 19286 19290 28
15433 19291 19292 28
15434 19291 19293 28
15435 19291 19294 28
15436 19291 19295 28
15437 19296 19297 28
15438 19296 19298 28
15439 19296 19299 28
15440 19296 19300 28
15441 19301 19302 28
15442 19301 19303 28
15443 19301 19304 28
15444 19301 19305 28
15445 19306 19307 28
15446 19306 19308 28
15447 19306 19309 28
15448 19306 19310 28
15449 19311 19312 28
15450 19311 19313 28
15451 19311 19314 28
15452 19311 19315 28
15453 19316 19317 28
15454 19316 19318 28
15455 19316 19319 28
15456 19316 19320 28
15457 19321 19322 28
15458 19321 19323 28
15459 19321 19324 28
15460 19321 19325 28
15461 19326 19327 28
15462 19326 19328 28
15463 19326 19329 28
15464 19326 19330 28
15465 19331 19332 28
15466 19331 19333 28
15467 19331 19334 28
15468 19331 19335 28
15469 19336 19337 28
15470 19336 19338 28
15471 19336 19339 28
15472 19336 19340 28
15473 19341 19342 28
15474 19341 19343 28
15475 19341 19344 28
15476 19341 19345 28
15477 19346 19347 28
15478 19346 19348 28
15479 19346 19349 28
15480 19346 19350 28
15481 19351 19352 28
15482 19351 19353 28
15483 19351 19354 28
15484 19351 19355 28
15485 19356 19357 28
15486 19356 19358 28
15487 19356 19359 28
15488 19356 19360 28
15489 19361 19362 28
15490 19361 19363 28
15491 19361 19364 28
15492 19361 19365 28
15493 19366 19367 28
15494 19366 19368 28
15495 19366 19369 28
15496 19366 19370 28
15497 19371 19372 28
15498 19371 19373 28
15499 19371 19374 28
15500 19371 19375 28
15501 19376 19377 28
15502 19376 19378 28
15503 19376 19379 28
15504 19376 19380 28
15505 19381 19382 28
15506 19381 19383 28
15507 19381 19384 28
15508 19381 19385 28
15509 19386 19387 28
15510 19386 19388 28
15511 19386 19389 28
15512 19386 19390 28
15513 19391 19392 28
15514 19391 19393 28
15515 19391 19394 28
15516 19391 19395 28
15517 19396 19397 28
15518 19396 19398 28
15519 19396 19399 28
15520 19396 19400 28
15521 19401 19402 28
15522 19401 19403 28
15523 19401 19404 28
15524 19401 19405 28
15525 19406 19407 28
15526 19406 19408 28
15527 19406 19409 28
15528 19406 19410 28
15529 19411 19412 28
15530 19411 19413 28
15531 19411 19414 28
15532 19411 19415 28
15533 19416 19417 28
15534 19416 19418 28
15535 19416 19419 28
15536 19416 19420 28
15537 19421 19422 28
15538 19421 19423 28
15539 19421 19424 28
15540 19421 19425 28
15541 19426 19427 28
15542 19426 19428 28
15543 19426 19429 28
15544 19426 19430 28
15545 19431 19432 28
15546 19431 19433 28
15547 19431 19434 28
15548 19431 19435 28
15549 19436 19437 28
15550 19436 19438 28
15551 19436 19439 28
15552 19436 19440 28
15553 19441 19442 28
15554 19441 19443 28
15555 19441 19444 28
15556 19441 19445 28
15557 19446 19447 28
15558 19446 19448 28
15559 19446 19449 28
15560 19446 19450 28
15561 19451 19452 28
15562 19451 19453 28
15563 19451 19454 28
15564 19451 19455 28
15565 19456 19457 28
15566 19456 19458 28
15567 19456 19459 28
15568 19456 19460 28
15569 19461 19462 28
15570 19461 19463 28
15571 19461 19464 28
15572 19461 19465 28
15573 19466 19467 28
15574 19466 19468 28
15575 19466 19469 28
15576 19466 19470 28
15577 19471 19472 28
15578 19471 19473 28
15579 19471 19474 28
15580 19471 19475 28
15581 19476 19477 28
15582 19476 19478 28
15583 19476 19479 28
15584 19476 19480 28
15585 19481 19482 28
15586 19481 19483 28
15587 19481 19484 28
15588 19481 19485 28
15589 19486 19487 28
15590 19486 19488 28
15591 19486 19489 28
15592 19486 19490 28
15593 19491 19492 28
15594 19491 19493 28
15595 19491 19494 28
15596 19491 19495 28
15597 19496 19497 28
15598 19496 19498 28
15599 19496 19499 28
15600 19496 19500 28
15601 19501 19502 28
15602 19501 19503 28
15603 19501 19504 28
15604 19501 19505 28
15605 19506 19507 28
15606 19506 19508 28
15607 19506 19509 28
15608 19506 19510 28
15609 19511 19512 28
15610 19511 19513 28
15611 19511 19514 28
15612 19511 19515 28
15613 19516 19517 28
15614 19516 19518 28
15615 19516 19519 28
15616 19516 19520 28
15617 19521 19522 28
15618 19521 19523 28
15619 19521 19524 28
15620 19521 19525 28
15621 19526 19527 28
15622 19526 19528 28
15623 19526 19529 28
15624 19526 19530 28
15625 19531 19532 28
15626 19531 19533 28
15627 19531 19534 28
15628 19531 19535 28
15629 19536 19537 28
15630 19536 19538 28
15631 19536 19539 28
15632 19536 19540 28
15633 19541 19542 28
15634 19541 19543 28
15635 19541 19544 28
15636 19541 19545 28
15637 19546 19547 28
15638 19546 19548 28
15639 19546 19549 28
15640 19546 19550 28
15641 19551 19552 28
15642 19551 19553 28
15643 19551 19554 28
15644 19551 19555 28
15645 19556 19557 28
15646 19556 19558 28
15647 19556 19559 28
15648 19556 19560 28
15649 19561 19562 28
15650 19561 19563 28
15651 19561 19564 28
15652 19561 19565 28
15653 19566 19567 28
15654 19566 19568 28
15655 19566 19569 28
15656 19566 19570 28
15657 19571 19572 28
15658 19571 19573 28
15659 19571 19574 28
15660 19571 19575 28
15661 19576 19577 28
15662 19576 19578 28
15663 19576 19579 28
15664 19576 19580 28
15665 19581 19582 28
15666 19581 19583 28
15667 19581 19584 28
15668 19581 19585 28
15669 19586 19587 28
15670 19586 19588 28
15671 19586 19589 28
15672 19586 19590 28
15673 19591 19592 28
15674 19591 19593 28
15675 19591 19594 28
15676 19591 19595 28
15677 19596 19597 28
15678 19596 19598 28
15679 19596 19599 28
15680 19596 19600 28
15681 19601 19602 28
15682 19601 19603 28
15683 19601 19604 28
15684 19601 19605 28
15685 19606 19607 28
15686 19606 19608 28
15687 19606 19609 28
15688 19606 19610 28
15689 19611 19612 28
15690 19611 19613 28
15691 19611 19614 28
15692 19611 19615 28
15693 19616 19617 28
15694 19616 19618 28
15695 19616 19619 28
15696 19616 19620 28
15697 19621 19622 28
15698 19621 19623 28
15699 19621 19624 28
15700 19621 19625 28
15701 19626 19627 28
15702 19626 19628 28
15703 19626 19629 28
15704 19626 19630 28
15705 19631 19632 28
15706 19631 19633 28
15707 19631 19634 28
15708 19631 19635 28
15709 19636 19637 28
15710 19636 19638 28
15711 19636 19639 28
15712 19636 19640 28
15713 19641 19642 28
15714 19641 19643 28
15715 19641 19644 28
15716 19641 19645 28
15717 19646 19647 28
15718 19646 19648 28
15719 19646 19649 28
15720 19646 19650 28
15721 19651 19652 28
15722 19651 19653 28
15723 19651 19654 28
15724 19651 19655 28
15725 19656 19657 28
15726 19656 19658 28
15727 19656 19659 28
15728 19656 19660 28
15729 19661 19662 28
15730 19661 19663 28
15731 19661 19664 28
15732 19661 19665 28
15733 19666 19667 28
15734 19666 19668 28
15735 19666 19669 28
15736 19666 19670 28
15737 19671 19672 28
15738 19671 19673 28
15739 19671 19674 28
15740 19671 19675 28
15741 19676 19677 28
15742 19676 19678 28
15743 19676 19679 28
15744 19676 19680 28
15745 19681 19682 28
15746 19681 19683 28
15747 19681 19684 28
15748 19681 19685 28
15749 19686 19687 28
15750 19686 19688 28
15751 19686 19689 28
15752 19686 19690 28
15753 19691 19692 28
15754 19691 19693 28
15755 19691 19694 28
15756 19691 19695 28
15757 19696 19697 28
15758 19696 19698 28
15759 19696 19699 28
15760 19696 19700 28
15761 19701 19702 28
15762 19701 19703 28
15763 19701 19704 28
15764 19701 19705 28
15765 19706 19707 28
15766 19706 19708 28
15767 19706 19709 28
15768 19706 19710 28
15769 19711 19712 28
15770 19711 19713 28
15771 19711 19714 28
15772 19711 19715 28
15773 19716 19717 28
15774 19716 19718 28
15775 19716 19719 28
15776 19716 19720 28
15777 19721 19722 28
15778 19721 19723 28
15779 19721 19724 28
15780 19721 19725 28
15781 19726 19727 28
15782 19726 19728 28
15783 19726 19729 28
15784 19726 19730 28
15785 19731 19732 28
15786 19731 19733 28
15787 19731 19734 28
15788 19731 19735 28
15789 19736 19737 28
15790 19736 19738 28
15791 19736 19739 28
15792 19736 19740 28
15793 19741 19742 28
15794 19741 19743 28
15795 19741 19744 28
15796 19741 19745 28
15797 19746 19747 28
15798 19746 19748 28
15799 19746 19749 28
15800 19746 19750 28
15801 19751 19752 28
15802 19751 19753 28
15803 19751 19754 28
15804 19751 19755 28
15805 19756 19757 28
15806 19756 19758 28
15807 19756 19759 28
15808 19756 19760 28
15809 19761 19762 28
15810 19761 19763 28
15811 19761 19764 28
15812 19761 19765 28
15813 19766 19767 28
15814 19766 19768 28
15815 19766 19769 28
15816 19766 19770 28
15817 19771 19772 28
15818 19771 19773 28
15819 19771 19774 28
15820 19771 19775 28
15821 19776 19777 28
15822 19776 19778 28
15823 19776 19779 28
15824 19776 19780 28
15825 19781 19782 28
15826 19781 19783 28
15827 19781 19784 28
15828 19781 19785 28
15829 19786 19787 28
15830 19786 19788 28
15831 19786 19789 28
15832 19786 19790 28
15833 19791 19792 28
15834 19791 19793 28
15835 19791 19794 28
15836 19791 19795 28
15837 19796 19797 28
15838 19796 19798 28
15839 19796 19799 28
15840 19796 19800 28
15841 19801 19802 28
15842 19801 19803 28
15843 19801 19804 28
15844 19801 19805 28
15845 19806 19807 28
15846 19806 19808 28
15847 19806 19809 28
15848 19806 19810 28
15849 19811 19812 28
15850 19811 19813 28
15851 19811 19814 28
15852 19811 19815 28
15853 19816 19817 28
15854 19816 19818 28
15855 19816 19819 28
15856 19816 19820 28
15857 19821 19822 28
15858 19821 19823 28
15859 19821 19824 28
15860 19821 19825 28
15861 19826 19827 28
15862 19826 19828 28
15863 19826 19829 28
15864 19826 19830 28
15865 19831 19832 28
15866 19831 19833 28
15867 19831 19834 28
15868 19831 19835 28
15869 19836 19837 28
15870 19836 19838 28
15871 19836 19839 28
15872 19836 19840 28
15873 19841 19842 28
15874 19841 19843 28
15875 19841 19844 28
15876 19841 19845 28
15877 19846 19847 28
15878 19846 19848 28
15879 19846 19849 28
15880 19846 19850 28
15881 19851 19852 28
15882 19851 19853 28
15883 19851 19854 28
15884 19851 19855 28
15885 19856 19857 28
15886 19856 19858 28
15887 19856 19859 28
15888 19856 19860 28
15889 19861 19862 28
15890 19861 19863 28
15891 19861 19864 28
15892 19861 19865 28
15893 19866 19867 28
15894 19866 19868 28
15895 19866 19869 28
15896 19866 19870 28
15897 19871 19872 28
15898 19871 19873 28
15899 19871 19874 28
15900 19871 19875 28
15901 19876 19877 28
15902 19876 19878 28
15903 19876 19879 28
15904 19876 19880 28
15905 19881 19882 28
15906 19881 19883 28
15907 19881 19884 28
15908 19881 19885 28
15909 19886 19887 28
15910 19886 19888 28
15911 19886 19889 28
15912 19886 19890 28
15913 19891 19892 28
15914 19891 19893 28
15915 19891 19894 28
15916 19891 19895 28
15917 19896 19897 28
15918 19896 19898 28
15919 19896 19899 28
15920 19896 19900 28
15921 19901 19902 28
15922 19901 19903 28
15923 19901 19904 28
15924 19901 19905 28
15925 19906 19907 28
15926 19906 19908 28
15927 19906 19909 28
15928 19906 19910 28
15929 19911 19912 28
15930 19911 19913 28
15931 19911 19914 28
15932 19911 19915 28
15933 19916 19917 28
15934 19916 19918 28
15935 19916 19919 28
15936 19916 19920 28
15937 19921 19922 28
15938 19921 19923 28
15939 19921 19924 28
15940 19921 19925 28
15941 19926 19927 28
15942 19926 19928 28
15943 19926 19929 28
15944 19926 19930 28
15945 19931 19932 28
15946 19931 19933 28
15947 19931 19934 28
15948 19931 19935 28
15949 19936 19937 28
15950 19936 19938 28
15951 19936 19939 28
15952 19936 19940 28
15953 19941 19942 28
15954 19941 19943 28
15955 19941 19944 28
15956 19941 19945 28
15957 19946 19947 28
15958 19946 19948 28
15959 19946 19949 28
15960 19946 19950 28
15961 19951 19952 28
15962 19951 19953 28
15963 19951 19954 28
15964 19951 19955 28
15965 19956 19957 28
15966 19956 19958 28
15967 19956 19959 28
15968 19956 19960 28
15969 19961 19962 28
15970 19961 19963 28
15971 19961 19964 28
15972 19961 19965 28
15973 19966 19967 28
15974 19966 19968 28
15975 19966 19969 28
15976 19966 19970 28
15977 19971 19972 28
15978 19971 19973 28
15979 19971 19974 28
15980 19971 19975 28
15981 19976 19977 28
15982 19976 19978 28
15983 19976 19979 28
15984 19976 19980 28
15985 19981 19982 28
15986 19981 19983 28
15987 19981 19984 28
15988 19981 19985 28
15989 19986 19987 28
15990 19986 19988 28
15991 19986 19989 28
15992 19986 19990 28
15993 19991 19992 28
15994 19991 19993 28
15995 19991 19994 28
15996 19991 19995 28
15997 19996 19997 28
15998 19996 19998 28
15999 19996 19999 28
16000 19996 20000 28
16001 20001 20002 28
16002 20001 20003 28
16003 20001 20004 28
16004 20001 20005 28
16005 20006 20007 28
16006 20006 20008 28
16007 20006 20009 28
16008 20006 20010 28
16009 20011 20012 28
16010 20011 20013 28
16011 20011 20014 28
16012 20011 20015 28
16013 20016 20017 28
16014 20016 20018 28
16015 20016 20019 28
16016 20016 20020 28
16017 20021 20022 28
16018 20021 20023 28
16019 20021 20024 28
16020 20021 20025 28
16021 20026 20027 28
16022 20026 20028 28
16023 20026 20029 28
16024 20026 20030 28
16025 20031 20032 28
16026 20031 20033 28
16027 20031 20034 28
16028 20031 20035 28
16029 20036 20037 28
16030 20036 20038 28
16031 20036 20039 28
16032 20036 20040 28
16033 20041 20042 28
16034 20041 20043 28
16035 20041 20044 28
16036 20041 20045 28
16037 20046 20047 28
16038 20046 20048 28
16039 20046 20049 28
16040 20046 20050 28
16041 20051 20052 28
16042 20051 20053 28
16043 20051 20054 28
16044 20051 20055 28
16045 20056 20057 28
16046 20056 20058 28
16047 20056 20059 28
16048 20056 20060 28
16049 20061 20062 28
16050 20061 20063 28
16051 20061 20064 28
16052 20061 20065 28
16053 20066 20067 28
16054 20066 20068 28
16055 20066 20069 28
16056 20066 20070 28
16057 20071 20072 28
16058 20071 20073 28
16059 20071 20074 28
16060 20071 20075 28
16061 20076 20077 28
16062 20076 20078 28
16063 20076 20079 28
16064 20076 20080 28
16065 20081 20082 28
16066 20081 20083 28
16067 20081 20084 28
16068 20081 20085 28
16069 20086 20087 28
16070 20086 20088 28
16071 20086 20089 28
16072 20086 20090 28
16073 20091 20092 28
16074 20091 20093 28
16075 20091 20094 28
16076 20091 20095 28
16077 20096 20097 28
16078 20096 20098 28
16079 20096 20099 28
16080 20096 20100 28
16081 20101 20102 28
16082 20101 20103 28
16083 20101 20104 28
16084 20101 20105 28
16085 20106 20107 28
16086 20106 20108 28
16087 20106 20109 28
16088 20106 20110 28
16089 20111 20112 28
16090 20111 20113 28
16091 20111 20114 28
16092 20111 20115 28
16093 20116 20117 28
16094 20116 20118 28
16095 20116 20119 28
16096 20116 20120 28
16097 20121 20122 28
16098 20121 20123 28
16099 20121 20124 28
16100 20121 20125 28
16101 20126 20127 28
16102 20126 20128 28
16103 20126 20129 28
16104 20126 20130 28
16105 20131 20132 28
16106 20131 20133 28
16107 20131 20134 28
16108 20131 20135 28
16109 20136 20137 28
16110 20136 20138 28
16111 20136 20139 28
16112 20136 20140 28
16113 20141 20142 28
16114 20141 20143 28
16115 20141 20144 28
16116 20141 20145 28
16117 20146 20147 28
16118 20146 20148 28
16119 20146 20149 28
16120 20146 20150 28
16121 20151 20152 28
16122 20151 20153 28
16123 20151 20154 28
16124 20151 20155 28
16125 20156 20157 28
16126 20156 20158 28
16127 20156 20159 28
16128 20156 20160 28
16129 20161 20162 28
16130 20161 20163 28
16131 20161 20164 28
16132 20161 20165 28
16133 20166 20167 28
16134 20166 20168 28
16135 20166 20169 28
16136 20166 20170 28
16137 20171 20172 28
16138 20171 20173 28
16139 20171 20174 28
16140 20171 20175 28
16141 20176 20177 28
16142 20176 20178 28
16143 20176 20179 28
16144 20176 20180 28
16145 20181 20182 28
16146 20181 20183 28
16147 20181 20184 28
16148 20181 20185 28
16149 20186 20187 28
16150 20186 20188 28
16151 20186 20189 28
16152 20186 20190 28
16153 20191 20192 28
16154 20191 20193 28
16155 20191 20194 28
16156 20191 20195 28
16157 20196 20197 28
16158 20196 20198 28
16159 20196 20199 28
16160 20196 20200 28
16161 20201 20202 28
16162 20201 20203 28
16163 20201 20204 28
16164 20201 20205 28
16165 20206 20207 28
16166 20206 20208 28
16167 20206 20209 28
16168 20206 20210 28
16169 20211 20212 28
16170 20211 20213 28
16171 20211 20214 28
16172 20211 20215 28
16173 20216 20217 28
16174 20216 20218 28
16175 20216 20219 28
16176 20216 20220 28
16177 20221 20222 28
16178 20221 20223 28
16179 20221 20224 28
16180 20221 20225 28
16181 20226 20227 28
16182 20226 20228 28
16183 20226 20229 28
16184 20226 20230 28
16185 20231 20232 28
16186 20231 20233 28
16187 20231 20234 28
16188 20231 20235 28
16189 20236 20237 28
16190 20236 20238 28
16191 20236 20239 28
16192 20236 20240 28
16193 20241 20242 28
16194 20241 20243 28
16195 20241 20244 28
16196 20241 20245 28
16197 20246 20247 28
16198 20246 20248 28
16199 20246 20249 28
16200 20246 20250 28
16201 20251 20252 28
16202 20251 20253 28
16203 20251 20254 28
16204 20251 20255 28
16205 20256 20257 28
16206 20256 20258 28
16207 20256 20259 28
16208 20256 20260 28
16209 20261 20262 28
16210 20261 20263 28
16211 20261 20264 28
16212 20261 20265 28
16213 20266 20267 28
16214 20266 20268 28
16215 20266 20269 28
16216 20266 20270 28
16217 20271 20272 28
16218 20271 20273 28
16219 20271 20274 28
16220 20271 20275 28
16221 20276 20277 28
16222 20276 20278 28
16223 20276 20279 28
16224 20276 20280 28
16225 20281 20282 28
16226 20281 20283 28
16227 20281 20284 28
16228 20281 20285 28
16229 20286 20287 28
16230 20286 20288 28
16231 20286 20289 28
16232 20286 20290 28
16233 20291 20292 28
16234 20291 20293 28
16235 20291 20294 28
16236 20291 20295 28
16237 20296 20297 28
16238 20296 20298 28
16239 20296 20299 28
16240 20296 20300 28
16241 20301 20302 28
16242 20301 20303 28
16243 20301 20304 28
16244 20301 20305 28
16245 20306 20307 28
16246 20306 20308 28
16247 20306 20309 28
16248 20306 20310 28
16249 20311 20312 28
16250 20311 20313 28
16251 20311 20314 28
16252 20311 20315 28
16253 20316 20317 28
16254 20316 20318 28
16255 20316 20319 28
16256 20316 20320 28
16257 20321 20322 28
16258 20321 20323 28
16259 20321 20324 28
16260 20321 20325 28
16261 20326 20327 28
16262 20326 20328 28
16263 20326 20329 28
16264 20326 20330 28
16265 20331 20332 28
16266 20331 20333 28
16267 20331 20334 28
16268 20331 20335 28
16269 20336 20337 28
16270 20336 20338 28
16271 20336 20339 28
16272 20336 20340 28
16273 20341 20342 28
16274 20341 20343 28
16275 20341 20344 28
16276 20341 20345 28
16277 20346 20347 28
16278 20346 20348 28
16279 20346 20349 28
16280 20346 20350 28
16281 20351 20352 28
16282 20351 20353 28
16283 20351 20354 28
16284 20351 20355 28
16285 20356 20357 28
16286 20356 20358 28
16287 20356 20359 28
16288 20356 20360 28
16289 20361 20362 28
16290 20361 20363 28
16291 20361 20364 28
16292 20361 20365 28
16293 20366 20367 28
16294 20366 20368 28
16295 20366 20369 28
16296 20366 20370 28
16297 20371 20372 28
16298 20371 20373 28
16299 20371 20374 28
16300 20371 20375 28
16301 20376 20377 28
16302 20376 20378 28
16303 20376 20379 28
16304 20376 20380 28
16305 20381 20382 28
16306 20381 20383 28
16307 20381 20384 28
16308 20381 20385 28
16309 20386 20387 28
16310 20386 20388 28
16311 20386 20389 28
16312 20386 20390 28
16313 20391 20392 28
16314 20391 20393 28
16315 20391 20394 28
16316 20391 20395 28
16317 20396 20397 28
16318 20396 20398 28
16319 20396 20399 28
16320 20396 20400 28
16321 20401 20402 28
16322 20401 20403 28
16323 20401 20404 28
16324 20401 20405 28
16325 20406 20407 28
16326 20406 20408 28
16327 20406 20409 28
16328 20406 20410 28
16329 20411 20412 28
16330 20411 20413 28
16331 20411 20414 28
16332 20411 20415 28
16333 20416 20417 28
16334 20416 20418 28
16335 20416 20419 28
16336 20416 20420 28
16337 20421 20422 28
16338 20421 20423 28
16339 20421 20424 28
16340 20421 20425 28
16341 20426 20427 28
16342 20426 20428 28
16343 20426 20429 28
16344 20426 20430 28
16345 20431 20432 28
16346 20431 20433 28
16347 20431 20434 28
16348 20431 20435 28
16349 20436 20437 28
16350 20436 20438 28
16351 20436 20439 28
16352 20436 20440 28
16353 20441 20442 28
16354 20441 20443 28
16355 20441 20444 28
16356 20441 20445 28
16357 20446 20447 28
16358 20446 20448 28
16359 20446 20449 28
16360 20446 20450 28
16361 20451 20452 28
16362 20451 20453 28
16363 20451 20454 28
16364 20451 20455 28
16365 20456 20457 28
16366 20456 20458 28
16367 20456 20459 28
16368 20456 20460 28
16369 20461 20462 28
16370 20461 20463 28
16371 20461 20464 28
16372 20461 20465 28
16373 20466 20467 28
16374 20466 20468 28
16375 20466 20469 28
16376 20466 20470 28
16377 20471 20472 28
16378 20471 20473 28
16379 20471 20474 28
16380 20471 20475 28
16381 20476 20477 28
16382 20476 20478 28
16383 20476 20479 28
16384 20476 20480 28
16385 20481 20482 28
16386 20481 20483 28
16387 20481 20484 28
16388 20481 20485 28
16389 20486 20487 28
16390 20486 20488 28
16391 20486 20489 28
16392 20486 20490 28
16393 20491 20492 28
16394 20491 20493 28
16395 20491 20494 28
16396 20491 20495 28
16397 20496 20497 28
16398 20496 20498 28
16399 20496 20499 28
16400 20496 20500 28
16401 20501 20502 28
16402 20501 20503 28
16403 20501 20504 28
16404 20501 20505 28
16405 20506 20507 28
16406 20506 20508 28
16407 20506 20509 28
16408 20506 20510 28
16409 20511 20512 28
16410 20511 20513 28
16411 20511 20514 28
16412 20511 20515 28
16413 20516 20517 28
16414 20516 20518 28
16415 20516 20519 28
16416 20516 20520 28
16417 20521 20522 28
16418 20521 20523 28
16419 20521 20524 28
16420 20521 20525 28
16421 20526 20527 28
16422 20526 20528 28
16423 20526 20529 28
16424 20526 20530 28
16425 20531 20532 28
16426 20531 20533 28
16427 20531 20534 28
16428 20531 20535 28
16429 20536 20537 28
16430 20536 20538 28
16431 20536 20539 28
16432 20536 20540 28
16433 20541 20542 28
16434 20541 20543 28
16435 20541 20544 28
16436 20541 20545 28
16437 20546 20547 28
16438 20546 20548 28
16439 20546 20549 28
16440 20546 20550 28
16441 20551 20552 28
16442 20551 20553 28
16443 20551 20554 28
16444 20551 20555 28
16445 20556 20557 28
16446 20556 20558 28
16447 20556 20559 28
16448 20556 20560 28
16449 20561 20562 28
16450 20561 20563 28
16451 20561 20564 28
16452 20561 20565 28
16453 20566 20567 28
16454 20566 20568 28
16455 20566 20569 28
16456 20566 20570 28
16457 20571 20572 28
16458 20571 20573 28
16459 20571 20574 28
16460 20571 20575 28
16461 20576 20577 28
16462 20576 20578 28
16463 20576 20579 28
16464 20576 20580 28
16465 20581 20582 28
16466 20581 20583 28
16467 20581 20584 28
16468 20581 20585 28
16469 20586 20587 28
16470 20586 20588 28
16471 20586 20589 28
16472 20586 20590 28
16473 20591 20592 28
16474 20591 20593 28
16475 20591 20594 28
16476 20591 20595 28
16477 20596 20597 28
16478 20596 20598 28
16479 20596 20599 28
16480 20596 20600 28
16481 20601 20602 28
16482 20601 20603 28
16483 20601 20604 28
16484 20601 20605 28
16485 20606 20607 28
16486 20606 20608 28
16487 20606 20609 28
16488 20606 20610 28
16489 20611 20612 28
16490 20611 20613 28
16491 20611 20614 28
16492 20611 20615 28
16493 20616 20617 28
16494 20616 20618 28
16495 20616 20619 28
16496 20616 20620 28
16497 20621 20622 28
16498 20621 20623 28
16499 20621 20624 28
16500 20621 20625 28
16501 20626 20627 28
16502 20626 20628 28
16503 20626 20629 28
16504 20626 20630 28
16505 20631 20632 28
16506 20631 20633 28
16507 20631 20634 28
16508 20631 20635 28
16509 20636 20637 28
16510 20636 20638 28
16511 20636 20639 28
16512 20636 20640 28
16513 20641 20642 28
16514 20641 20643 28
16515 20641 20644 28
16516 20641 20645 28
16517 20646 20647 28
16518 20646 20648 28
16519 20646 20649 28
16520 20646 20650 28
16521 20651 20652 28
16522 20651 20653 28
16523 20651 20654 28
16524 20651 20655 28
16525 20656 20657 28
16526 20656 20658 28
16527 20656 20659 28
16528 20656 20660 28
16529 20661 20662 28
16530 20661 20663 28
16531 20661 20664 28
16532 20661 20665 28
16533 20666 20667 28
16534 20666 20668 28
16535 20666 20669 28
16536 20666 20670 28
16537 20671 20672 28
16538 20671 20673 28
16539 20671 20674 28
16540 20671 20675 28
16541 20676 20677 28
16542 20676 20678 28
16543 20676 20679 28
16544 20676 20680 28
16545 20681 20682 28
16546 20681 20683 28
16547 20681 20684 28
16548 20681 20685 28
16549 20686 20687 28
16550 20686 20688 28
16551 20686 20689 28
16552 20686 20690 28
16553 20691 20692 28
16554 20691 20693 28
16555 20691 20694 28
16556 20691 20695 28
16557 20696 20697 28
16558 20696 20698 28
16559 20696 20699 28
16560 20696 20700 28
16561 20701 20702 28
16562 20701 20703 28
16563 20701 20704 28
16564 20701 20705 28
16565 20706 20707 28
16566 20706 20708 28
16567 20706 20709 28
16568 20706 20710 28
16569 20711 20712 28
16570 20711 20713 28
16571 20711 20714 28
16572 20711 20715 28
16573 20716 20717 28
16574 20716 20718 28
16575 20716 20719 28
16576 20716 20720 28
16577 20721 20722 28
16578 20721 20723 28
16579 20721 20724 28
16580 20721 20725 28
16581 20726 20727 28
16582 20726 20728 28
16583 20726 20729 28
16584 20726 20730 28
16585 20731 20732 28
16586 20731 20733 28
16587 20731 20734 28
16588 20731 20735 28
16589 20736 20737 28
16590 20736 20738 28
16591 20736 20739 28
16592 20736 20740 28
16593 20741 20742 28
16594 20741 20743 28
16595 20741 20744 28
16596 20741 20745 28
16597 20746 20747 28
16598 20746 20748 28
16599 20746 20749 28
16600 20746 20750 28
16601 20751 20752 28
16602 20751 20753 28
16603 20751 20754 28
16604 20751 20755 28
16605 20756 20757 28
16606 20756 20758 28
16607 20756 20759 28
16608 20756 20760 28
16609 20761 20762 28
16610 20761 20763 28
16611 20761 20764 28
16612 20761 20765 28
16613 20766 20767 28
16614 20766 20768 28
16615 20766 20769 28
16616 20766 20770 28
16617 20771 20772 28
16618 20771 20773 28
16619 20771 20774 28
16620 20771 20775 28
16621 20776 20777 28
16622 20776 20778 28
16623 20776 20779 28
16624 20776 20780 28
16625 20781 20782 28
16626 20781 20783 28
16627 20781 20784 28
16628 20781 20785 28
16629 20786 20787 28
16630 20786 20788 28
16631 20786 20789 28
16632 20786 20790 28
16633 20791 20792 28
16634 20791 20793 28
16635 20791 20794 28
16636 20791 20795 28
16637 20796 20797 28
16638 20796 20798 28
16639 20796 20799 28
16640 20796 20800 28
16641 20801 20802 28
16642 20801 20803 28
16643 20801 20804 28
16644 20801 20805 28
16645 20806 20807 28
16646 20806 20808 28
16647 20806 20809 28
16648 20806 20810 28
16649 20811 20812 28
16650 20811 20813 28
16651 20811 20814 28
16652 20811 20815 28
16653 20816 20817 28
16654 20816 20818 28
16655 20816 20819 28
16656 20816 20820 28
16657 20821 20822 28
16658 20821 20823 28
16659 20821 20824 28
16660 20821 20825 28
16661 20826 20827 28
16662 20826 20828 28
16663 20826 20829 28
16664 20826 20830 28
16665 20831 20832 28
16666 20831 20833 28
16667 20831 20834 28
16668 20831 20835 28
16669 20836 20837 28
16670 20836 20838 28
16671 20836 20839 28
16672 20836 20840 28
16673 20841 20842 28
16674 20841 20843 28
16675 20841 20844 28
16676 20841 20845 28
16677 20846 20847 28
16678 20846 20848 28
16679 20846 20849 28
16680 20846 20850 28
16681 20851 20852 28
16682 20851 20853 28
16683 20851 20854 28
16684 20851 20855 28
16685 20856 20857 28
16686 20856 20858 28
16687 20856 20859 28
16688 20856 20860 28
16689 20861 20862 28
16690 20861 20863 28
16691 20861 20864 28
16692 20861 20865 28
16693 20866 20867 28
16694 20866 20868 28
16695 20866 20869 28
16696 20866 20870 28
16697 20871 20872 28
16698 20871 20873 28
16699 20871 20874 28
16700 20871 20875 28
16701 20876 20877 28
16702 20876 20878 28
16703 20876 20879 28
16704 20876 20880 28
16705 20881 20882 28
16706 20881 20883 28
16707 20881 20884 28
16708 20881 20885 28
16709 20886 20887 28
16710 20886 20888 28
16711 20886 20889 28
16712 20886 20890 28
16713 20891 20892 28
16714 20891 20893 28
16715 20891 20894 28
16716 20891 20895 28
16717 20896 20897 28
16718 20896 20898 28
16719 20896 20899 28
16720 20896 20900 28
16721 20901 20902 28
16722 20901 20903 28
16723 20901 20904 28
16724 20901 20905 28
16725 20906 20907 28
16726 20906 20908 28
16727 20906 20909 28
16728 20906 20910 28
16729 20911 20912 28
16730 20911 20913 28
16731 20911 20914 28
16732 20911 20915 28
16733 20916 20917 28
16734 20916 20918 28
16735 20916 20919 28
16736 20916 20920 28
16737 20921 20922 28
16738 20921 20923 28
16739 20921 20924 28
16740 20921 20925 28
16741 20926 20927 28
16742 20926 20928 28
16743 20926 20929 28
16744 20926 20930 28
16745 20931 20932 28
16746 20931 20933 28
16747 20931 20934 28
16748 20931 20935 28
16749 20936 20937 28
16750 20936 20938 28
16751 20936 20939 28
16752 20936 20940 28
16753 20941 20942 28
16754 20941 20943 28
16755 20941 20944 28
16756 20941 20945 28
16757 20946 20947 28
16758 20946 20948 28
16759 20946 20949 28
16760 20946 20950 28
16761 20951 20952 28
16762 20951 20953 28
16763 20951 20954 28
16764 20951 20955 28
16765 20956 20957 28
16766 20956 20958 28
16767 20956 20959 28
16768 20956 20960 28
16769 20961 20962 28
16770 20961 20963 28
16771 20961 20964 28
16772 20961 20965 28
16773 20966 20967 28
16774 20966 20968 28
16775 20966 20969 28
16776 20966 20970 28
16777 20971 20972 28
16778 20971 20973 28
16779 20971 20974 28
16780 20971 20975 28
16781 20976 20977 28
16782 20976 20978 28
16783 20976 20979 28
16784 20976 20980 28
16785 20981 20982 28
16786 20981 20983 28
16787 20981 20984 28
16788 20981 20985 28
16789 20986 20987 28
16790 20986 20988 28
16791 20986 20989 28
16792 20986 20990 28
16793 20991 20992 28
16794 20991 20993 28
16795 20991 20994 28
16796 20991 20995 28
16797 20996 20997 28
16798 20996 20998 28
16799 20996 20999 28
16800 20996 21000 28
16801 21001 21002 28
16802 21001 21003 28
16803 21001 21004 28
16804 21001 21005 28
16805 21006 21007 28
16806 21006 21008 28
16807 21006 21009 28
16808 21006 21010 28
16809 21011 21012 28
16810 21011 21013 28
16811 21011 21014 28
16812 21011 21015 28
16813 21016 21017 28
16814 21016 21018 28
16815 21016 21019 28
16816 21016 21020 28
16817 21021 21022 28
16818 21021 21023 28
16819 21021 21024 28
16820 21021 21025 28
16821 21026 21027 28
16822 21026 21028 28
16823 21026 21029 28
16824 21026 21030 28
16825 21031 21032 28
16826 21031 21033 28
16827 21031 21034 28
16828 21031 21035 28
16829 21036 21037 28
16830 21036 21038 28
16831 21036 21039 28
16832 21036 21040 28
16833 21041 21042 28
16834 21041 21043 28
16835 21041 21044 28
16836 21041 21045 28
16837 21046 21047 28
16838 21046 21048 28
16839 21046 21049 28
16840 21046 21050 28
16841 21051 21052 28
16842 21051 21053 28
16843 21051 21054 28
16844 21051 21055 28
16845 21056 21057 28
16846 21056 21058 28
16847 21056 21059 28
16848 21056 21060 28
16849 21061 21062 28
16850 21061 21063 28
16851 21061 21064 28
16852 21061 21065 28
16853 21066 21067 28
16854 21066 21068 28
16855 21066 21069 28
16856 21066 21070 28
16857 21071 21072 28
16858 21071 21073 28
16859 21071 21074 28
16860 21071 21075 28
16861 21076 21077 28
16862 21076 21078 28
16863 21076 21079 28
16864 21076 21080 28
16865 21081 21082 28
16866 21081 21083 28
16867 21081 21084 28
16868 21081 21085 28
16869 21086 21087 28
16870 21086 21088 28
16871 21086 21089 28
16872 21086 21090 28
16873 21091 21092 28
16874 21091 21093 28
16875 21091 21094 28
16876 21091 21095 28
16877 21096 21097 28
16878 21096 21098 28
16879 21096 21099 28
16880 21096 21100 28
16881 21101 21102 28
16882 21101 21103 28
16883 21101 21104 28
16884 21101 21105 28
16885 21106 21107 28
16886 21106 21108 28
16887 21106 21109 28
16888 21106 21110 28
16889 21111 21112 28
16890 21111 21113 28
16891 21111 21114 28
16892 21111 21115 28
16893 21116 21117 28
16894 21116 21118 28
16895 21116 21119 28
16896 21116 21120 28
16897 21121 21122 28
16898 21121 21123 28
16899 21121 21124 28
16900 21121 21125 28
16901 21126 21127 28
16902 21126 21128 28
16903 21126 21129 28
16904 21126 21130 28
16905 21131 21132 28
16906 21131 21133 28
16907 21131 21134 28
16908 21131 21135 28
16909 21136 21137 28
16910 21136 21138 28
16911 21136 21139 28
16912 21136 21140 28
16913 21141 21142 28
16914 21141 21143 28
16915 21141 21144 28
16916 21141 21145 28
16917 21146 21147 28
16918 21146 21148 28
16919 21146 21149 28
16920 21146 21150 28
16921 21151 21152 28
16922 21151 21153 28
16923 21151 21154 28
16924 21151 21155 28
16925 21156 21157 28
16926 21156 21158 28
16927 21156 21159 28
16928 21156 21160 28
16929 21161 21162 28
16930 21161 21163 28
16931 21161 21164 28
16932 21161 21165 28
16933 21166 21167 28
16934 21166 21168 28
16935 21166 21169 28
16936 21166 21170 28
16937 21171 21172 28
16938 21171 21173 28
16939 21171 21174 28
16940 21171 21175 28
16941 21176 21177 28
16942 21176 21178 28
16943 21176 21179 28
16944 21176 21180 28
16945 21181 21182 28
16946 21181 21183 28
16947 21181 21184 28
16948 21181 21185 28
16949 21186 21187 28
16950 21186 21188 28
16951 21186 21189 28
16952 21186 21190 28
16953 21191 21192 28
16954 21191 21193 28
16955 21191 21194 28
16956 21191 21195 28
16957 21196 21197 28
16958 21196 21198 28
16959 21196 21199 28
16960 21196 21200 28
16961 21201 21202 28
16962 21201 21203 28
16963 21201 21204 28
16964 21201 21205 28
16965 21206 21207 28
16966 21206 21208 28
16967 21206 21209 28
16968 21206 21210 28
16969 21211 21212 28
16970 21211 21213 28
16971 21211 21214 28
16972 21211 21215 28
16973 21216 21217 28
16974 21216 21218 28
16975 21216 21219 28
16976 21216 21220 28
16977 21221 21222 28
16978 21221 21223 28
16979 21221 21224 28
16980 21221 21225 28
16981 21226 21227 28
16982 21226 21228 28
16983 21226 21229 28
16984 21226 21230 28
16985 21231 21232 28
16986 21231 21233 28
16987 21231 21234 28
16988 21231 21235 28
16989 21236 21237 28
16990 21236 21238 28
16991 21236 21239 28
16992 21236 21240 28
16993 21241 21242 28
16994 21241 21243 28
16995 21241 21244 28
16996 21241 21245 28
16997 21246 21247 28
16998 21246 21248 28
16999 21246 21249 28
17000 21246 21250 28
17001 21251 21252 28
17002 21251 21253 28
17003 21251 21254 28
17004 21251 21255 28
17005 21256 21257 28
17006 21256 21258 28
17007 21256 21259 28
17008 21256 21260 28
17009 21261 21262 28
17010 21261 21263 28
17011 21261 21264 28
17012 21261 21265 28
17013 21266 21267 28
17014 21266 21268 28
17015 21266 21269 28
17016 21266 21270 28
17017 21271 21272 28
17018 21271 21273 28
17019 21271 21274 28
17020 21271 21275 28
17021 21276 21277 28
17022 21276 21278 28
17023 21276 21279 28
17024 21276 21280 28
17025 21281 21282 28
17026 21281 21283 28
17027 21281 21284 28
17028 21281 21285 28
17029 21286 21287 28
17030 21286 21288 28
17031 21286 21289 28
17032 21286 21290 28
17033 21291 21292 28
17034 21291 21293 28
17035 21291 21294 28
17036 21291 21295 28
17037 21296 21297 28
17038 21296 21298 28
17039 21296 21299 28
17040 21296 21300 28
17041 21301 21302 28
17042 21301 21303 28
17043 21301 21304 28
17044 21301 21305 28
17045 21306 21307 28
17046 21306 21308 28
17047 21306 21309 28
17048 21306 21310 28
17049 21311 21312 28
17050 21311 21313 28
17051 21311 21314 28
17052 21311 21315 28
17053 21316 21317 28
17054 21316 21318 28
17055 21316 21319 28
17056 21316 21320 28
17057 21321 21322 28
17058 21321 21323 28
17059 21321 21324 28
17060 21321 21325 28
17061 21326 21327 28
17062 21326 21328 28
17063 21326 21329 28
17064 21326 21330 28
17065 21331 21332 28
17066 21331 21333 28
17067 21331 21334 28
17068 21331 21335 28
17069 21336 21337 28
17070 21336 21338 28
17071 21336 21339 28
17072 21336 21340 28
17073 21341 21342 28
17074 21341 21343 28
17075 21341 21344 28
17076 21341 21345 28
17077 21346 21347 28
17078 21346 21348 28
17079 21346 21349 28
17080 21346 21350 28
17081 21351 21352 28
17082 21351 21353 28
17083 21351 21354 28
17084 21351 21355 28
17085 21356 21357 28
17086 21356 21358 28
17087 21356 21359 28
17088 21356 21360 28
17089 21361 21362 28
17090 21361 21363 28
17091 21361 21364 28
17092 21361 21365 28
17093 21366 21367 28
17094 21366 21368 28
17095 21366 21369 28
17096 21366 21370 28
17097 21371 21372 28
17098 21371 21373 28
17099 21371 21374 28
17100 21371 21375 28
17101 21376 21377 28
17102 21376 21378 28
17103 21376 21379 28
17104 21376 21380 28
17105 21381 21382 28
17106 21381 21383 28
17107 21381 21384 28
17108 21381 21385 28
17109 21386 21387 28
17110 21386 21388 28
17111 21386 21389 28
17112 21386 21390 28
17113 21391 21392 28
17114 21391 21393 28
17115 21391 21394 28
17116 21391 21395 28
17117 21396 21397 28
17118 21396 21398 28
17119 21396 21399 28
17120 21396 21400 28
17121 21401 21402 28
17122 21401 21403 28
17123 21401 21404 28
17124 21401 21405 28
17125 21406 21407 28
17126 21406 21408 28
17127 21406 21409 28
17128 21406 21410 28
17129 21411 21412 28
17130 21411 21413 28
17131 21411 21414 28
17132 21411 21415 28
17133 21416 21417 28
17134 21416 21418 28
17135 21416 21419 28
17136 21416 21420 28
17137 21421 21422 28
17138 21421 21423 28
17139 21421 21424 28
17140 21421 21425 28
17141 21426 21427 28
17142 21426 21428 28
17143 21426 21429 28
17144 21426 21430 28
17145 21431 21432 28
17146 21431 21433 28
17147 21431 21434 28
17148 21431 21435 28
17149 21436 21437 28
17150 21436 21438 28
17151 21436 21439 28
17152 21436 21440 28
17153 21441 21442 28
17154 21441 21443 28
17155 21441 21444 28
17156 21441 21445 28
17157 21446 21447 28
17158 21446 21448 28
17159 21446 21449 28
17160 21446 21450 28
17161 21451 21452 28
17162 21451 21453 28
17163 21451 21454 28
17164 21451 21455 28
17165 21456 21457 28
17166 21456 21458 28
17167 21456 21459 28
17168 21456 21460 28
17169 21461 21462 28
17170 21461 21463 28
17171 21461 21464 28
17172 21461 21465 28
17173 21466 21467 28
17174 21466 21468 28
17175 21466 21469 28
17176 21466 21470 28
17177 21471 21472 28
17178 21471 21473 28
17179 21471 21474 28
17180 21471 21475 28
17181 21476 21477 28
17182 21476 21478 28
17183 21476 21479 28
17184 21476 21480 28
17185 21481 21482 28
17186 21481 21483 28
17187 21481 21484 28
17188 21481 21485 28
17189 21486 21487 28
17190 21486 21488 28
17191 21486 21489 28
17192 21486 21490 28
17193 21491 21492 28
17194 21491 21493 28
17195 21491 21494 28
17196 21491 21495 28
17197 21496 21497 28
17198 21496 21498 28
17199 21496 21499 28
17200 21496 21500 28
17201 21501 21502 28
17202 21501 21503 28
17203 21501 21504 28
17204 21501 21505 28
17205 21506 21507 28
17206 21506 21508 28
17207 21506 21509 28
17208 21506 21510 28
17209 21511 21512 28
17210 21511 21513 28
17211 21511 21514 28
17212 21511 21515 28
17213 21516 21517 28
17214 21516 21518 28
17215 21516 21519 28
17216 21516 21520 28
17217 21521 21522 28
17218 21521 21523 28
17219 21521 21524 28
17220 21521 21525 28
17221 21526 21527 28
17222 21526 21528 28
17223 21526 21529 28
17224 21526 21530 28
17225 21531 21532 28
17226 21531 21533 28
17227 21531 21534 28
17228 21531 21535 28
17229 21536 21537 28
17230 21536 21538 28
17231 21536 21539 28
17232 21536 21540 28
17233 21541 21542 28
17234 21541 21543 28
17235 21541 21544 28
17236 21541 21545 28
17237 21546 21547 28
17238 21546 21548 28
17239 21546 21549 28
17240 21546 21550 28
17241 21551 21552 28
17242 21551 21553 28
17243 21551 21554 28
17244 21551 21555 28
17245 21556 21557 28
17246 21556 21558 28
17247 21556 21559 28
17248 21556 21560 28
17249 21561 21562 28
17250 21561 21563 28
17251 21561 21564 28
17252 21561 21565 28
17253 21566 21567 28
17254 21566 21568 28
17255 21566 21569 28
17256 21566 21570 28
17257 21571 21572 28
17258 21571 21573 28
17259 21571 21574 28
17260 21571 21575 28
17261 21576 21577 28
17262 21576 21578 28
17263 21576 21579 28
17264 21576 21580 28
17265 21581 21582 28
17266 21581 21583 28
17267 21581 21584 28
17268 21581 21585 28
17269 21586 21587 28
17270 21586 21588 28
17271 21586 21589 28
17272 21586 21590 28
17273 21591 21592 28
17274 21591 21593 28
17275 21591 21594 28
17276 21591 21595 28
17277 21596 21597 28
17278 21596 21598 28
17279 21596 21599 28
17280 21596 21600 28
17281 21601 21602 28
17282 21601 21603 28
17283 21601 21604 28
17284 21601 21605 28
17285 21606 21607 28
17286 21606 21608 28
17287 21606 21609 28
17288 21606 21610 28
17289 21611 21612 28
17290 21611 21613 28
17291 21611 21614 28
17292 21611 21615 28
17293 21616 21617 28
17294 21616 21618 28
17295 21616 21619 28
17296 21616 21620 28
17297 21621 21622 28
17298 21621 21623 28
17299 21621 21624 28
17300 21621 21625 28
17301 21626 21627 28
17302 21626 21628 28
17303 21626 21629 28
17304 21626 21630 28
17305 21631 21632 28
17306 21631 21633 28
17307 21631 21634 28
17308 21631 21635 28
17309 21636 21637 28
17310 21636 21638 28
17311 21636 21639 28
17312 21636 21640 28
17313 21641 21642 28
17314 21641 21643 28
17315 21641 21644 28
17316 21641 21645 28
17317 21646 21647 28
17318 21646 21648 28
17319 21646 21649 28
17320 21646 21650 28
17321 21651 21652 28
17322 21651 21653 28
17323 21651 21654 28
17324 21651 21655 28
17325 21656 21657 28
17326 21656 21658 28
17327 21656 21659 28
17328 21656 21660 28
17329 21661 21662 28
17330 21661 21663 28
17331 21661 21664 28
17332 21661 21665 28
17333 21666 21667 28
17334 21666 21668 28
17335 21666 21669 28
17336 21666 21670 28
17337 21671 21672 28
17338 21671 21673 28
17339 21671 21674 28
17340 21671 21675 28
17341 21676 21677 28
17342 21676 21678 28
17343 21676 21679 28
17344 21676 21680 28
17345 21681 21682 28
17346 21681 21683 28
17347 21681 21684 28
17348 21681 21685 28
17349 21686 21687 28
17350 21686 21688 28
17351 21686 21689 28
17352 21686 21690 28
17353 21691 21692 28
17354 21691 21693 28
17355 21691 21694 28
17356 21691 21695 28
17357 21696 21697 28
17358 21696 21698 28
17359 21696 21699 28
17360 21696 21700 28
17361 21701 21702 28
17362 21701 21703 28
17363 21701 21704 28
17364 21701 21705 28
17365 21706 21707 28
17366 21706 21708 28
17367 21706 21709 28
17368 21706 21710 28
17369 21711 21712 28
17370 21711 21713 28
17371 21711 21714 28
17372 21711 21715 28
17373 21716 21717 28
17374 21716 21718 28
17375 21716 21719 28
17376 21716 21720 28
17377 21721 21722 28
17378 21721 21723 28
17379 21721 21724 28
17380 21721 21725 28
17381 21726 21727 28
17382 21726 21728 28
17383 21726 21729 28
17384 21726 21730 28
17385 21731 21732 28
17386 21731 21733 28
17387 21731 21734 28
17388 21731 21735 28
17389 21736 21737 28
17390 21736 21738 28
17391 21736 21739 28
17392 21736 21740 28
17393 21741 21742 28
17394 21741 21743 28
17395 21741 21744 28
17396 21741 21745 28
17397 21746 21747 28
17398 21746 21748 28
17399 21746 21749 28
17400 21746 21750 28
17401 21751 21752 28
17402 21751 21753 28
17403 21751 21754 28
17404 21751 21755 28
17405 21756 21757 28
17406 21756 21758 28
17407 21756 21759 28
17408 21756 21760 28
17409 21761 21762 28
17410 21761 21763 28
17411 21761 21764 28
17412 21761 21765 28
17413 21766 21767 28
17414 21766 21768 28
17415 21766 21769 28
17416 21766 21770 28
17417 21771 21772 28
17418 21771 21773 28
17419 21771 21774 28
17420 21771 21775 28
17421 21776 21777 28
17422 21776 21778 28
17423 21776 21779 28
17424 21776 21780 28
17425 21781 21782 28
17426 21781 21783 28
17427 21781 21784 28
17428 21781 21785 28
17429 21786 21787 28
17430 21786 21788 28
17431 21786 21789 28
17432 21786 21790 28
17433 21791 21792 28
17434 21791 21793 28
17435 21791 21794 28
17436 21791 21795 28
17437 21796 21797 28
17438 21796 21798 28
17439 21796 21799 28
17440 21796 21800 28
17441 21801 21802 28
17442 21801 21803 28
17443 21801 21804 28
17444 21801 21805 28
17445 21806 21807 28
17446 21806 21808 28
17447 21806 21809 28
17448 21806 21810 28
17449 21811 21812 28
17450 21811 21813 28
17451 21811 21814 28
17452 21811 21815 28
17453 21816 21817 28
17454 21816 21818 28
17455 21816 21819 28
17456 21816 21820 28
17457 21821 21822 28
17458 21821 21823 28
17459 21821 21824 28
17460 21821 21825 28
17461 21826 21827 28
17462 21826 21828 28
17463 21826 21829 28
17464 21826 21830 28
17465 21831 21832 28
17466 21831 21833 28
17467 21831 21834 28
17468 21831 21835 28
17469 21836 21837 28
17470 21836 21838 28
17471 21836 21839 28
17472 21836 21840 28
17473 21841 21842 28
17474 21841 21843 28
17475 21841 21844 28
17476 21841 21845 28
17477 21846 21847 28
17478 21846 21848 28
17479 21846 21849 28
17480 21846 21850 28
17481 21851 21852 28
17482 21851 21853 28
17483 21851 21854 28
17484 21851 21855 28
17485 21856 21857 28
17486 21856 21858 28
17487 21856 21859 28
17488 21856 21860 28
17489 21861 21862 28
17490 21861 21863 28
17491 21861 21864 28
17492 21861 21865 28
17493 21866 21867 28
17494 21866 21868 28
17495 21866 21869 28
17496 21866 21870 28
17497 21871 21872 28
17498 21871 21873 28
17499 21871 21874 28
17500 21871 21875 28
17501 21876 21877 28
17502 21876 21878 28
17503 21876 21879 28
17504 21876 21880 28
17505 21881 21882 28
17506 21881 21883 28
17507 21881 21884 28
17508 21881 21885 28
17509 21886 21887 28
17510 21886 21888 28
17511 21886 21889 28
17512 21886 21890 28
17513 21891 21892 28
17514 21891 21893 28
17515 21891 21894 28
17516 21891 21895 28
17517 21896 21897 28
17518 21896 21898 28
17519 21896 21899 28
17520 21896 21900 28
17521 21901 21902 28
17522 21901 21903 28
17523 21901 21904 28
17524 21901 21905 28
17525 21906 21907 28
17526 21906 21908 28
17527 21906 21909 28
17528 21906 21910 28
17529 21911 21912 28
17530 21911 21913 28
17531 21911 21914 28
17532 21911 21915 28
17533 21916 21917 28
17534 21916 21918 28
17535 21916 21919 28
17536 21916 21920 28
17537 21921 21922 28
17538 21921 21923 28
17539 21921 21924 28
17540 21921 21925 28
17541 21926 21927 28
17542 21926 21928 28
17543 21926 21929 28
17544 21926 21930 28
17545 21931 21932 28
17546 21931 21933 28
17547 21931 21934 28
17548 21931 21935 28
17549 21936 21937 28
17550 21936 21938 28
17551 21936 21939 28
17552 21936 21940 28
17553 21941 21942 28
17554 21941 21943 28
17555 21941 21944 28
17556 21941 21945 28
17557 21946 21947 28
17558 21946 21948 28
17559 21946 21949 28
17560 21946 21950 28
17561 21951 21952 28
17562 21951 21953 28
17563 21951 21954 28
17564 21951 21955 28
17565 21956 21957 28
17566 21956 21958 28
17567 21956 21959 28
17568 21956 21960 28
17569 21961 21962 28
17570 21961 21963 28
17571 21961 21964 28
17572 21961 21965 28
17573 21966 21967 28
17574 21966 21968 28
17575 21966 21969 28
17576 21966 21970 28
17577 21971 21972 28
17578 21971 21973 28
17579 21971 21974 28
17580 21971 21975 28
17581 21976 21977 28
17582 21976 21978 28
17583 21976 21979 28
17584 21976 21980 28
17585 21981 21982 28
17586 21981 21983 28
17587 21981 21984 28
17588 21981 21985 28
17589 21986 21987 28
17590 21986 21988 28
17591 21986 21989 28
17592 21986 21990 28
17593 21991 21992 28
17594 21991 21993 28
17595 21991 21994 28
17596 21991 21995 28
17597 21996 21997 28
17598 21996 21998 28
17599 21996 21999 28
17600 21996 22000 28
17601 22001 22002 28
17602 22001 22003 28
17603 22001 22004 28
17604 22001 22005 28
17605 22006 22007 28
17606 22006 22008 28
17607 22006 22009 28
17608 22006 22010 28
17609 22011 22012 28
17610 22011 22013 28
17611 22011 22014 28
17612 22011 22015 28
17613 22016 22017 28
17614 22016 22018 28
17615 22016 22019 28
17616 22016 22020 28
17617 22021 22022 28
17618 22021 22023 28
17619 22021 22024 28
17620 22021 22025 28
17621 22026 22027 28
17622 22026 22028 28
17623 22026 22029 28
17624 22026 22030 28
17625 22031 22032 28
17626 22031 22033 28
17627 22031 22034 28
17628 22031 22035 28
17629 22036 22037 28
17630 22036 22038 28
17631 22036 22039 28
17632 22036 22040 28
17633 22041 22042 28
17634 22041 22043 28
17635 22041 22044 28
17636 22041 22045 28
17637 22046 22047 28
17638 22046 22048 28
17639 22046 22049 28
17640 22046 22050 28
17641 22051 22052 28
17642 22051 22053 28
17643 22051 22054 28
17644 22051 22055 28
17645 22056 22057 28
17646 22056 22058 28
17647 22056 22059 28
17648 22056 22060 28
17649 22061 22062 28
17650 22061 22063 28
17651 22061 22064 28
17652 22061 22065 28
17653 22066 22067 28
17654 22066 22068 28
17655 22066 22069 28
17656 22066 22070 28
17657 22071 22072 28
17658 22071 22073 28
17659 22071 22074 28
17660 22071 22075 28
17661 22076 22077 28
17662 22076 22078 28
17663 22076 22079 28
17664 22076 22080 28
17665 22081 22082 28
17666 22081 22083 28
17667 22081 22084 28
17668 22081 22085 28
17669 22086 22087 28
17670 22086 22088 28
17671 22086 22089 28
17672 22086 22090 28
17673 22091 22092 28
17674 22091 22093 28
17675 22091 22094 28
17676 22091 22095 28
17677 22096 22097 28
17678 22096 22098 28
17679 22096 22099 28
17680 22096 22100 28
17681 22101 22102 28
17682 22101 22103 28
17683 22101 22104 28
17684 22101 22105 28
17685 22106 22107 28
17686 22106 22108 28
17687 22106 22109 28
17688 22106 22110 28
17689 22111 22112 28
17690 22111 22113 28
17691 22111 22114 28
17692 22111 22115 28
17693 22116 22117 28
17694 22116 22118 28
17695 22116 22119 28
17696 22116 22120 28
17697 22121 22122 28
17698 22121 22123 28
17699 22121 22124 28
17700 22121 22125 28
17701 22126 22127 28
17702 22126 22128 28
17703 22126 22129 28
17704 22126 22130 28
17705 22131 22132 28
17706 22131 22133 28
17707 22131 22134 28
17708 22131 22135 28
17709 22136 22137 28
17710 22136 22138 28
17711 22136 22139 28
17712 22136 22140 28
17713 22141 22142 28
17714 22141 22143 28
17715 22141 22144 28
17716 22141 22145 28
17717 22146 22147 28
17718 22146 22148 28
17719 22146 22149 28
17720 22146 22150 28
17721 22151 22152 28
17722 22151 22153 28
17723 22151 22154 28
17724 22151 22155 28
17725 22156 22157 28
17726 22156 22158 28
17727 22156 22159 28
17728 22156 22160 28
17729 22161 22162 28
17730 22161 22163 28
17731 22161 22164 28
17732 22161 22165 28
17733 22166 22167 28
17734 22166 22168 28
17735 22166 22169 28
17736 22166 22170 28
17737 22171 22172 28
17738 22171 22173 28
17739 22171 22174 28
17740 22171 22175 28
17741 22176 22177 28
17742 22176 22178 28
17743 22176 22179 28
17744 22176 22180 28
17745 22181 22182 28
17746 22181 22183 28
17747 22181 22184 28
17748 22181 22185 28
17749 22186 22187 28
17750 22186 22188 28
17751 22186 22189 28
17752 22186 22190 28
17753 22191 22192 28
17754 22191 22193 28
17755 22191 22194 28
17756 22191 22195 28
17757 22196 22197 28
17758 22196 22198 28
17759 22196 22199 28
17760 22196 22200 28
17761 22201 22202 28
17762 22201 22203 28
17763 22201 22204 28
17764 22201 22205 28
17765 22206 22207 28
17766 22206 22208 28
17767 22206 22209 28
17768 22206 22210 28
17769 22211 22212 28
17770 22211 22213 28
17771 22211 22214 28
17772 22211 22215 28
17773 22216 22217 28
17774 22216 22218 28
17775 22216 22219 28
17776 22216 22220 28
17777 22221 22222 28
17778 22221 22223 28
17779 22221 22224 28
17780 22221 22225 28
17781 22226 22227 28
17782 22226 22228 28
17783 22226 22229 28
17784 22226 22230 28
17785 22231 22232 28
17786 22231 22233 28
17787 22231 22234 28
17788 22231 22235 28
17789 22236 22237 28
17790 22236 22238 28
17791 22236 22239 28
17792 22236 22240 28
17793 22241 22242 28
17794 22241 22243 28
17795 22241 22244 28
17796 22241 22245 28
17797 22246 22247 28
17798 22246 22248 28
17799 22246 22249 28
17800 22246 22250 28
17801 22251 22252 28
17802 22251 22253 28
17803 22251 22254 28
17804 22251 22255 28
17805 22256 22257 28
17806 22256 22258 28
17807 22256 22259 28
17808 22256 22260 28
17809 22261 22262 28
17810 22261 22263 28
17811 22261 22264 28
17812 22261 22265 28
17813 22266 22267 28
17814 22266 22268 28
17815 22266 22269 28
17816 22266 22270 28
17817 22271 22272 28
17818 22271 22273 28
17819 22271 22274 28
17820 22271 22275 28
17821 22276 22277 28
17822 22276 22278 28
17823 22276 22279 28
17824 22276 22280 28
17825 22281 22282 28
17826 22281 22283 28
17827 22281 22284 28
17828 22281 22285 28
17829 22286 22287 28
17830 22286 22288 28
17831 22286 22289 28
17832 22286 22290 28
17833 22291 22292 28
17834 22291 22293 28
17835 22291 22294 28
17836 22291 22295 28
17837 22296 22297 28
17838 22296 22298 28
17839 22296 22299 28
17840 22296 22300 28
17841 22301 22302 28
17842 22301 22303 28
17843 22301 22304 28
17844 22301 22305 28
17845 22306 22307 28
17846 22306 22308 28
17847 22306 22309 28
17848 22306 22310 28
17849 22311 22312 28
17850 22311 22313 28
17851 22311 22314 28
17852 22311 22315 28
17853 22316 22317 28
17854 22316 22318 28
17855 22316 22319 28
17856 22316 22320 28
17857 22321 22322 28
17858 22321 22323 28
17859 22321 22324 28
17860 22321 22325 28
17861 22326 22327 28
17862 22326 22328 28
17863 22326 22329 28
17864 22326 22330 28
17865 22331 22332 28
17866 22331 22333 28
17867 22331 22334 28
17868 22331 22335 28
17869 22336 22337 28
17870 22336 22338 28
17871 22336 22339 28
17872 22336 22340 28
17873 22341 22342 28
17874 22341 22343 28
17875 22341 22344 28
17876 22341 22345 28
17877 22346 22347 28
17878 22346 22348 28
17879 22346 22349 28
17880 22346 22350 28
17881 22351 22352 28
17882 22351 22353 28
17883 22351 22354 28
17884 22351 22355 28
17885 22356 22357 28
17886 22356 22358 28
17887 22356 22359 28
17888 22356 22360 28
17889 22361 22362 28
17890 22361 22363 28
17891 22361 22364 28
17892 22361 22365 28
17893 22366 22367 28
17894 22366 22368 28
17895 22366 22369 28
17896 22366 22370 28
17897 22371 22372 28
17898 22371 22373 28
17899 22371 22374 28
17900 22371 22375 28
17901 22376 22377 28
17902 22376 22378 28
17903 22376 22379 28
17904 22376 22380 28
17905 22381 22382 28
17906 22381 22383 28
17907 22381 22384 28
17908 22381 22385 28
17909 22386 22387 28
17910 22386 22388 28
17911 22386 22389 28
17912 22386 22390 28
17913 22391 22392 28
17914 22391 22393 28
17915 22391 22394 28
17916 22391 22395 28
17917 22396 22397 28
17918 22396 22398 28
17919 22396 22399 28
17920 22396 22400 28
17921 22401 22402 28
17922 22401 22403 28
17923 22401 22404 28
17924 22401 22405 28
17925 22406 22407 28
17926 22406 22408 28
17927 22406 22409 28
17928 22406 22410 28
17929 22411 22412 28
17930 22411 22413 28
17931 22411 22414 28
17932 22411 22415 28
17933 22416 22417 28
17934 22416 22418 28
17935 22416 22419 28
17936 22416 22420 28
17937 22421 22422 28
17938 22421 22423 28
17939 22421 22424 28
17940 22421 22425 28
17941 22426 22427 28
17942 22426 22428 28
17943 22426 22429 28
17944 22426 22430 28
17945 22431 22432 28
17946 22431 22433 28
17947 22431 22434 28
17948 22431 22435 28
17949 22436 22437 28
17950 22436 22438 28
17951 22436 22439 28
17952 22436 22440 28
17953 22441 22442 28
17954 22441 22443 28
17955 22441 22444 28
17956 22441 22445 28
17957 22446 22447 28
17958 22446 22448 28
17959 22446 22449 28
17960 22446 22450 28
17961 22451 22452 28
17962 22451 22453 28
17963 22451 22454 28
17964 22451 22455 28
17965 22456 22457 28
17966 22456 22458 28
17967 22456 22459 28
17968 22456 22460 28
17969 22461 22462 28
17970 22461 22463 28
17971 22461 22464 28
17972 22461 22465 28
17973 22466 22467 28
17974 22466 22468 28
17975 22466 22469 28
17976 22466 22470 28
17977 22471 22472 28
17978 22471 22473 28
17979 22471 22474 28
17980 22471 22475 28
17981 22476 22477 28
17982 22476 22478 28
17983 22476 22479 28
17984 22476 22480 28
17985 22481 22482 28
17986 22481 22483 28
17987 22481 22484 28
17988 22481 22485 28
17989 22486 22487 28
17990 22486 22488 28
17991 22486 22489 28
17992 22486 22490 28
17993 22491 22492 28
17994 22491 22493 28
17995 22491 22494 28
17996 22491 22495 28
17997 22496 22497 28
17998 22496 22498 28
17999 22496 22499 28
18000 22496 22500 28
18001 22501 22502 28
18002 22501 22503 28
18003 22501 22504 28
18004 22501 22505 28
18005 22506 22507 28
18006 22506 22508 28
18007 22506 22509 28
18008 22506 22510 28
18009 22511 22512 28
18010 22511 22513 28
18011 22511 22514 28
18012 22511 22515 28
18013 22516 22517 28
18014 22516 22518 28
18015 22516 22519 28
18016 22516 22520 28
18017 22521 22522 28
18018 22521 22523 28
18019 22521 22524 28
18020 22521 22525 28
18021 22526 22527 28
18022 22526 22528 28
18023 22526 22529 28
18024 22526 22530 28
18025 22531 22532 28
18026 22531 22533 28
18027 22531 22534 28
18028 22531 22535 28
18029 22536 22537 28
18030 22536 22538 28
18031 22536 22539 28
18032 22536 22540 28
18033 22541 22542 28
18034 22541 22543 28
18035 22541 22544 28
18036 22541 22545 28
18037 22546 22547 28
18038 22546 22548 28
18039 22546 22549 28
18040 22546 22550 28
18041 22551 22552 28
18042 22551 22553 28
18043 22551 22554 28
18044 22551 22555 28
18045 22556 22557 28
18046 22556 22558 28
18047 22556 22559 28
18048 22556 22560 28
18049 22561 22562 28
18050 22561 22563 28
18051 22561 22564 28
18052 22561 22565 28
18053 22566 22567 28
18054 22566 22568 28
18055 22566 22569 28
18056 22566 22570 28
18057 22571 22572 28
18058 22571 22573 28
18059 22571 22574 28
18060 22571 22575 28
18061 22576 22577 28
18062 22576 22578 28
18063 22576 22579 28
18064 22576 22580 28
18065 22581 22582 28
18066 22581 22583 28
18067 22581 22584 28
18068 22581 22585 28
18069 22586 22587 28
18070 22586 22588 28
18071 22586 22589 28
18072 22586 22590 28
18073 22591 22592 28
18074 22591 22593 28
18075 22591 22594 28
18076 22591 22595 28
18077 22596 22597 28
18078 22596 22598 28
18079 22596 22599 28
18080 22596 22600 28
18081 22601 22602 28
18082 22601 22603 28
18083 22601 22604 28
18084 22601 22605 28
18085 22606 22607 28
18086 22606 22608 28
18087 22606 22609 28
18088 22606 22610 28
18089 22611 22612 28
18090 22611 22613 28
18091 22611 22614 28
18092 22611 22615 28
18093 22616 22617 28
18094 22616 22618 28
18095 22616 22619 28
18096 22616 22620 28
18097 22621 22622 28
18098 22621 22623 28
18099 22621 22624 28
18100 22621 22625 28
18101 22626 22627 28
18102 22626 22628 28
18103 22626 22629 28
18104 22626 22630 28
18105 22631 22632 28
18106 22631 22633 28
18107 22631 22634 28
18108 22631 22635 28
18109 22636 22637 28
18110 22636 22638 28
18111 22636 22639 28
18112 22636 22640 28
18113 22641 22642 28
18114 22641 22643 28
18115 22641 22644 28
18116 22641 22645 28
18117 22646 22647 28
18118 22646 22648 28
18119 22646 22649 28
18120 22646 22650 28
18121 22651 22652 28
18122 22651 22653 28
18123 22651 22654 28
18124 22651 22655 28
18125 22656 22657 28
18126 22656 22658 28
18127 22656 22659 28
18128 22656 22660 28
18129 22661 22662 28
18130 22661 22663 28
18131 22661 22664 28
18132 22661 22665 28
18133 22666 22667 28
18134 22666 22668 28
18135 22666 22669 28
18136 22666 22670 28
18137 22671 22672 28
18138 22671 22673 28
18139 22671 22674 28
18140 22671 22675 28
18141 22676 22677 28
18142 22676 22678 28
18143 22676 22679 28
18144 22676 22680 28
18145 22681 22682 28
18146 22681 22683 28
18147 22681 22684 28
18148 22681 22685 28
18149 22686 22687 28
18150 22686 22688 28
18151 22686 22689 28
18152 22686 22690 28
18153 22691 22692 28
18154 22691 22693 28
18155 22691 22694 28
18156 22691 22695 28
18157 22696 22697 28
18158 22696 22698 28
18159 22696 22699 28
18160 22696 22700 28
18161 22701 22702 28
18162 22701 22703 28
18163 22701 22704 28
18164 22701 22705 28
18165 22706 22707 28
18166 22706 22708 28
18167 22706 22709 28
18168 22706 22710 28
18169 22711 22712 28
18170 22711 22713 28
18171 22711 22714 28
18172 22711 22715 28
18173 22716 22717 28
18174 22716 22718 28
18175 22716 22719 28
18176 22716 22720 28
18177 22721 22722 28
18178 22721 22723 28
18179 22721 22724 28
18180 22721 22725 28
18181 22726 22727 28
18182 22726 22728 28
18183 22726 22729 28
18184 22726 22730 28
18185 22731 22732 28
18186 22731 22733 28
18187 22731 22734 28
18188 22731 22735 28
18189 22736 22737 28
18190 22736 22738 28
18191 22736 22739 28
18192 22736 22740 28
18193 22741 22742 28
18194 22741 22743 28
18195 22741 22744 28
18196 22741 22745 28
18197 22746 22747 28
18198 22746 22748 28
18199 22746 22749 28
18200 22746 22750 28
18201 22751 22752 28
18202 22751 22753 28
18203 22751 22754 28
18204 22751 22755 28
18205 22756 22757 28
18206 22756 22758 28
18207 22756 22759 28
18208 22756 22760 28
18209 22761 22762 28
18210 22761 22763 28
18211 22761 22764 28
18212 22761 22765 28
18213 22766 22767 28
18214 22766 22768 28
18215 22766 22769 28
18216 22766 22770 28
18217 22771 22772 28
18218 22771 22773 28
18219 22771 22774 28
18220 22771 22775 28
18221 22776 22777 28
18222 22776 22778 28
18223 22776 22779 28
18224 22776 22780 28
18225 22781 22782 28
18226 22781 22783 28
18227 22781 22784 28
18228 22781 22785 28
18229 22786 22787 28
18230 22786 22788 28
18231 22786 22789 28
18232 22786 22790 28
18233 22791 22792 28
18234 22791 22793 28
18235 22791 22794 28
18236 22791 22795 28
18237 22796 22797 28
18238 22796 22798 28
18239 22796 22799 28
18240 22796 22800 28
18241 22801 22802 28
18242 22801 22803 28
18243 22801 22804 28
18244 22801 22805 28
18245 22806 22807 28
18246 22806 22808 28
18247 22806 22809 28
18248 22806 22810 28
18249 22811 22812 28
18250 22811 22813 28
18251 22811 22814 28
18252 22811 22815 28
18253 22816 22817 28
18254 22816 22818 28
18255 22816 22819 28
18256 22816 22820 28
18257 22821 22822 28
18258 22821 22823 28
18259 22821 22824 28
18260 22821 22825 28
18261 22826 22827 28
18262 22826 22828 28
18263 22826 22829 28
18264 22826 22830 28
18265 22831 22832 28
18266 22831 22833 28
18267 22831 22834 28
18268 22831 22835 28
18269 22836 22837 28
18270 22836 22838 28
18271 22836 22839 28
18272 22836 22840 28
18273 22841 22842 28
18274 22841 22843 28
18275 22841 22844 28
18276 22841 22845 28
18277 22846 22847 28
18278 22846 22848 28
18279 22846 22849 28
18280 22846 22850 28
18281 22851 22852 28
18282 22851 22853 28
18283 22851 22854 28
18284 22851 22855 28
18285 22856 22857 28
18286 22856 22858 28
18287 22856 22859 28
18288 22856 22860 28
18289 22861 22862 28
18290 22861 22863 28
18291 22861 22864 28
18292 22861 22865 28
18293 22866 22867 28
18294 22866 22868 28
18295 22866 22869 28
18296 22866 22870 28
18297 22871 22872 28
18298 22871 22873 28
18299 22871 22874 28
18300 22871 22875 28
18301 22876 22877 28
18302 22876 22878 28
18303 22876 22879 28
18304 22876 22880 28
18305 22881 22882 28
18306 22881 22883 28
18307 22881 22884 28
18308 22881 22885 28
18309 22886 22887 28
18310 22886 22888 28
18311 22886 22889 28
18312 22886 22890 28
18313 22891 22892 28
18314 22891 22893 28
18315 22891 22894 28
18316 22891 22895 28
18317 22896 22897 28
18318 22896 22898 28
18319 22896 22899 28
18320 22896 22900 28
18321 22901 22902 28
18322 22901 22903 28
18323 22901 22904 28
18324 22901 22905 28
18325 22906 22907 28
18326 22906 22908 28
18327 22906 22909 28
18328 22906 22910 28
18329 22911 22912 28
18330 22911 22913 28
18331 22911 22914 28
18332 22911 22915 28
18333 22916 22917 28
18334 22916 22918 28
18335 22916 22919 28
18336 22916 22920 28
18337 22921 22922 28
18338 22921 22923 28
18339 22921 22924 28
18340 22921 22925 28
18341 22926 22927 28
18342 22926 22928 28
18343 22926 22929 28
18344 22926 22930 28
18345 22931 22932 28
18346 22931 22933 28
18347 22931 22934 28
18348 22931 22935 28
18349 22936 22937 28
18350 22936 22938 28
18351 22936 22939 28
18352 22936 22940 28
18353 22941 22942 28
18354 22941 22943 28
18355 22941 22944 28
18356 22941 22945 28
18357 22946 22947 28
18358 22946 22948 28
18359 22946 22949 28
18360 22946 22950 28
18361 22951 22952 28
18362 22951 22953 28
18363 22951 22954 28
18364 22951 22955 28
18365 22956 22957 28
18366 22956 22958 28
18367 22956 22959 28
18368 22956 22960 28
18369 22961 22962 28
18370 22961 22963 28
18371 22961 22964 28
18372 22961 22965 28
18373 22966 22967 28
18374 22966 22968 28
18375 22966 22969 28
18376 22966 22970 28
18377 22971 22972 28
18378 22971 22973 28
18379 22971 22974 28
18380 22971 22975 28
18381 22976 22977 28
18382 22976 22978 28
18383 22976 22979 28
18384 22976 22980 28
18385 22981 22982 28
18386 22981 22983 28
18387 22981 22984 28
18388 22981 22985 28
18389 22986 22987 28
18390 22986 22988 28
18391 22986 22989 28
18392 22986 22990 28
18393 22991 22992 28
18394 22991 22993 28
18395 22991 22994 28
18396 22991 22995 28
18397 22996 22997 28
18398 22996 22998 28
18399 22996 22999 28
18400 22996 23000 28
18401 23001 23002 28
18402 23001 23003 28
18403 23001 23004 28
18404 23001 23005 28
18405 23006 23007 28
18406 23006 23008 28
18407 23006 23009 28
18408 23006 23010 28
18409 23011 23012 28
18410 23011 23013 28
18411 23011 23014 28
18412 23011 23015 28
18413 23016 23017 28
18414 23016 23018 28
18415 23016 23019 28
18416 23016 23020 28
18417 23021 23022 28
18418 23021 23023 28
18419 23021 23024 28
18420 23021 23025 28
18421 23026 23027 28
18422 23026 23028 28
18423 23026 23029 28
18424 23026 23030 28
18425 23031 23032 28
18426 23031 23033 28
18427 23031 23034 28
18428 23031 23035 28
18429 23036 23037 28
18430 23036 23038 28
18431 23036 23039 28
18432 23036 23040 28
18433 23041 23042 28
18434 23041 23043 28
18435 23041 23044 28
18436 23041 23045 28
18437 23046 23047 28
18438 23046 23048 28
18439 23046 23049 28
18440 23046 23050 28
18441 23051 23052 28
18442 23051 23053 28
18443 23051 23054 28
18444 23051 23055 28
18445 23056 23057 28
18446 23056 23058 28
18447 23056 23059 28
18448 23056 23060 28
18449 23061 23062 28
18450 23061 23063 28
18451 23061 23064 28
18452 23061 23065 28
18453 23066 23067 28
18454 23066 23068 28
18455 23066 23069 28
18456 23066 23070 28
18457 23071 23072 28
18458 23071 23073 28
18459 23071 23074 28
18460 23071 23075 28
18461 23076 23077 28
18462 23076 23078 28
18463 23076 23079 28
18464 23076 23080 28
18465 23081 23082 28
18466 23081 23083 28
18467 23081 23084 28
18468 23081 23085 28
18469 23086 23087 28
18470 23086 23088 28
18471 23086 23089 28
18472 23086 23090 28
18473 23091 23092 28
18474 23091 23093 28
18475 23091 23094 28
18476 23091 23095 28
18477 23096 23097 28
18478 23096 23098 28
18479 23096 23099 28
18480 23096 23100 28
18481 23101 23102 28
18482 23101 23103 28
18483 23101 23104 28
18484 23101 23105 28
18485 23106 23107 28
18486 23106 23108 28
18487 23106 23109 28
18488 23106 23110 28
18489 23111 23112 28
18490 23111 23113 28
18491 23111 23114 28
18492 23111 23115 28
18493 23116 23117 28
18494 23116 23118 28
18495 23116 23119 28
18496 23116 23120 28
18497 23121 23122 28
18498 23121 23123 28
18499 23121 23124 28
18500 23121 23125 28
18501 23126 23127 28
18502 23126 23128 28
18503 23126 23129 28
18504 23126 23130 28
18505 23131 23132 28
18506 23131 23133 28
18507 23131 23134 28
18508 23131 23135 28
18509 23136 23137 28
18510 23136 23138 28
18511 23136 23139 28
18512 23136 23140 28
18513 23141 23142 28
18514 23141 23143 28
18515 23141 23144 28
18516 23141 23145 28
18517 23146 23147 28
18518 23146 23148 28
18519 23146 23149 28
18520 23146 23150 28
18521 23151 23152 28
18522 23151 23153 28
18523 23151 23154 28
18524 23151 23155 28
18525 23156 23157 28
18526 23156 23158 28
18527 23156 23159 28
18528 23156 23160 28
18529 23161 23162 28
18530 23161 23163 28
18531 23161 23164 28
18532 23161 23165 28
18533 23166 23167 28
18534 23166 23168 28
18535 23166 23169 28
18536 23166 23170 28
18537 23171 23172 28
18538 23171 23173 28
18539 23171 23174 28
18540 23171 23175 28
18541 23176 23177 28
18542 23176 23178 28
18543 23176 23179 28
18544 23176 23180 28
18545 23181 23182 28
18546 23181 23183 28
18547 23181 23184 28
18548 23181 23185 28
18549 23186 23187 28
18550 23186 23188 28
18551 23186 23189 28
18552 23186 23190 28
18553 23191 23192 28
18554 23191 23193 28
18555 23191 23194 28
18556 23191 23195 28
18557 23196 23197 28
18558 23196 23198 28
18559 23196 23199 28
18560 23196 23200 28
18561 23201 23202 28
18562 23201 23203 28
18563 23201 23204 28
18564 23201 23205 28
18565 23206 23207 28
18566 23206 23208 28
18567 23206 23209 28
18568 23206 23210 28
18569 23211 23212 28
18570 23211 23213 28
18571 23211 23214 28
18572 23211 23215 28
18573 23216 23217 28
18574 23216 23218 28
18575 23216 23219 28
18576 23216 23220 28
18577 23221 23222 28
18578 23221 23223 28
18579 23221 23224 28
18580 23221 23225 28
18581 23226 23227 28
18582 23226 23228 28
18583 23226 23229 28
18584 23226 23230 28
18585 23231 23232 28
18586 23231 23233 28
18587 23231 23234 28
18588 23231 23235 28
18589 23236 23237 28
18590 23236 23238 28
18591 23236 23239 28
18592 23236 23240 28
18593 23241 23242 28
18594 23241 23243 28
18595 23241 23244 28
18596 23241 23245 28
18597 23246 23247 28
18598 23246 23248 28
18599 23246 23249 28
18600 23246 23250 28
18601 23251 23252 28
18602 23251 23253 28
18603 23251 23254 28
18604 23251 23255 28
18605 23256 23257 28
18606 23256 23258 28
18607 23256 23259 28
18608 23256 23260 28
18609 23261 23262 28
18610 23261 23263 28
18611 23261 23264 28
18612 23261 23265 28
18613 23266 23267 28
18614 23266 23268 28
18615 23266 23269 28
18616 23266 23270 28
18617 23271 23272 28
18618 23271 23273 28
18619 23271 23274 28
18620 23271 23275 28
18621 23276 23277 28
18622 23276 23278 28
18623 23276 23279 28
18624 23276 23280 28
18625 23281 23282 28
18626 23281 23283 28
18627 23281 23284 28
18628 23281 23285 28
18629 23286 23287 28
18630 23286 23288 28
18631 23286 23289 28
18632 23286 23290 28
18633 23291 23292 28
18634 23291 23293 28
18635 23291 23294 28
18636 23291 23295 28
18637 23296 23297 28
18638 23296 23298 28
18639 23296 23299 28
18640 23296 23300 28
18641 23301 23302 28
18642 23301 23303 28
18643 23301 23304 28
18644 23301 23305 28
18645 23306 23307 28
18646 23306 23308 28
18647 23306 23309 28
18648 23306 23310 28
18649 23311 23312 28
18650 23311 23313 28
18651 23311 23314 28
18652 23311 23315 28
18653 23316 23317 28
18654 23316 23318 28
18655 23316 23319 28
18656 23316 23320 28
18657 23321 23322 28
18658 23321 23323 28
18659 23321 23324 28
18660 23321 23325 28
18661 23326 23327 28
18662 23326 23328 28
18663 23326 23329 28
18664 23326 23330 28
18665 23331 23332 28
18666 23331 23333 28
18667 23331 23334 28
18668 23331 23335 28
18669 23336 23337 28
18670 23336 23338 28
18671 23336 23339 28
18672 23336 23340 28
18673 23341 23342 28
18674 23341 23343 28
18675 23341 23344 28
18676 23341 23345 28
18677 23346 23347 28
18678 23346 23348 28
18679 23346 23349 28
18680 23346 23350 28
18681 23351 23352 28
18682 23351 23353 28
18683 23351 23354 28
18684 23351 23355 28
18685 23356 23357 28
18686 23356 23358 28
18687 23356 23359 28
18688 23356 23360 28
18689 23361 23362 28
18690 23361 23363 28
18691 23361 23364 28
18692 23361 23365 28
18693 23366 23367 28
18694 23366 23368 28
18695 23366 23369 28
18696 23366 23370 28
18697 23371 23372 28
18698 23371 23373 28
18699 23371 23374 28
18700 23371 23375 28
18701 23376 23377 28
18702 23376 23378 28
18703 23376 23379 28
18704 23376 23380 28
18705 23381 23382 28
18706 23381 23383 28
18707 23381 23384 28
18708 23381 23385 28
18709 23386 23387 28
18710 23386 23388 28
18711 23386 23389 28
18712 23386 23390 28
18713 23391 23392 28
18714 23391 23393 28
18715 23391 23394 28
18716 23391 23395 28
18717 23396 23397 28
18718 23396 23398 28
18719 23396 23399 28
18720 23396 23400 28
18721 23401 23402 28
18722 23401 23403 28
18723 23401 23404 28
18724 23401 23405 28
18725 23406 23407 28
18726 23406 23408 28
18727 23406 23409 28
18728 23406 23410 28
18729 23411 23412 28
18730 23411 23413 28
18731 23411 23414 28
18732 23411 23415 28
18733 23416 23417 28
18734 23416 23418 28
18735 23416 23419 28
18736 23416 23420 28
18737 23421 23422 28
18738 23421 23423 28
18739 23421 23424 28
18740 23421 23425 28
18741 23426 23427 28
18742 23426 23428 28
18743 23426 23429 28
18744 23426 23430 28
18745 23431 23432 28
18746 23431 23433 28
18747 23431 23434 28
18748 23431 23435 28
18749 23436 23437 28
18750 23436 23438 28
18751 23436 23439 28
18752 23436 23440 28
18753 23441 23442 28
18754 23441 23443 28
18755 23441 23444 28
18756 23441 23445 28
18757 23446 23447 28
18758 23446 23448 28
18759 23446 23449 28
18760 23446 23450 28
18761 23451 23452 28
18762 23451 23453 28
18763 23451 23454 28
18764 23451 23455 28
18765 23456 23457 28
18766 23456 23458 28
18767 23456 23459 28
18768 23456 23460 28
18769 23461 23462 28
18770 23461 23463 28
18771 23461 23464 28
18772 23461 23465 28
18773 23466 23467 28
18774 23466 23468 28
18775 23466 23469 28
18776 23466 23470 28
18777 23471 23472 28
18778 23471 23473 28
18779 23471 23474 28
18780 23471 23475 28
18781 23476 23477 28
18782 23476 23478 28
18783 23476 23479 28
18784 23476 23480 28
18785 23481 23482 28
18786 23481 23483 28
18787 23481 23484 28
18788 23481 23485 28
18789 23486 23487 28
18790 23486 23488 28
18791 23486 23489 28
18792 23486 23490 28
18793 23491 23492 28
18794 23491 23493 28
18795 23491 23494 28
18796 23491 23495 28
18797 23496 23497 28
18798 23496 23498 28
18799 23496 23499 28
18800 23496 23500 28
18801 23501 23502 28
18802 23501 23503 28
18803 23501 23504 28
18804 23501 23505 28
18805 23506 23507 28
18806 23506 23508 28
18807 23506 23509 28
18808 23506 23510 28
18809 23511 23512 28
18810 23511 23513 28
18811 23511 23514 28
18812 23511 23515 28
18813 23516 23517 28
18814 23516 23518 28
18815 23516 23519 28
18816 23516 23520 28
18817 23521 23522 28
18818 23521 23523 28
18819 23521 23524 28
18820 23521 23525 28
18821 23526 23527 28
18822 23526 23528 28
18823 23526 23529 28
18824 23526 23530 28
18825 23531 23532 28
18826 23531 23533 28
18827 23531 23534 28
18828 23531 23535 28
18829 23536 23537 28
18830 23536 23538 28
18831 23536 23539 28
18832 23536 23540 28
18833 23541 23542 28
18834 23541 23543 28
18835 23541 23544 28
18836 23541 23545 28
18837 23546 23547 28
18838 23546 23548 28
18839 23546 23549 28
18840 23546 23550 28
18841 23551 23552 28
18842 23551 23553 28
18843 23551 23554 28
18844 23551 23555 28
18845 23556 23557 28
18846 23556 23558 28
18847 23556 23559 28
18848 23556 23560 28
18849 23561 23562 28
18850 23561 23563 28
18851 23561 23564 28
18852 23561 23565 28
18853 23566 23567 28
18854 23566 23568 28
18855 23566 23569 28
18856 23566 23570 28
18857 23571 23572 28
18858 23571 23573 28
18859 23571 23574 28
18860 23571 23575 28
18861 23576 23577 28
18862 23576 23578 28
18863 23576 23579 28
18864 23576 23580 28
18865 23581 23582 28
18866 23581 23583 28
18867 23581 23584 28
18868 23581 23585 28
18869 23586 23587 28
18870 23586 23588 28
18871 23586 23589 28
18872 23586 23590 28
18873 23591 23592 28
18874 23591 23593 28
18875 23591 23594 28
18876 23591 23595 28
18877 23596 23597 28
18878 23596 23598 28
18879 23596 23599 28
18880 23596 23600 28
18881 23601 23602 28
18882 23601 23603 28
18883 23601 23604 28
18884 23601 23605 28
18885 23606 23607 28
18886 23606 23608 28
18887 23606 23609 28
18888 23606 23610 28
18889 23611 23612 28
18890 23611 23613 28
18891 23611 23614 28
18892 23611 23615 28
18893 23616 23617 28
18894 23616 23618 28
18895 23616 23619 28
18896 23616 23620 28
18897 23621 23622 28
18898 23621 23623 28
18899 23621 23624 28
18900 23621 23625 28
18901 23626 23627 28
18902 23626 23628 28
18903 23626 23629 28
18904 23626 23630 28
18905 23631 23632 28
18906 23631 23633 28
18907 23631 23634 28
18908 23631 23635 28
18909 23636 23637 28
18910 23636 23638 28
18911 23636 23639 28
18912 23636 23640 28
18913 23641 23642 28
18914 23641 23643 28
18915 23641 23644 28
18916 23641 23645 28
18917 23646 23647 28
18918 23646 23648 28
18919 23646 23649 28
18920 23646 23650 28
18921 23651 23652 28
18922 23651 23653 28
18923 23651 23654 28
18924 23651 23655 28
18925 23656 23657 28
18926 23656 23658 28
18927 23656 23659 28
18928 23656 23660 28
18929 23661 23662 28
18930 23661 23663 28
18931 23661 23664 28
18932 23661 23665 28
18933 23666 23667 28
18934 23666 23668 28
18935 23666 23669 28
18936 23666 23670 28
18937 23671 23672 28
18938 23671 23673 28
18939 23671 23674 28
18940 23671 23675 28
18941 23676 23677 28
18942 23676 23678 28
18943 23676 23679 28
18944 23676 23680 28
18945 23681 23682 28
18946 23681 23683 28
18947 23681 23684 28
18948 23681 23685 28
18949 23686 23687 28
18950 23686 23688 28
18951 23686 23689 28
18952 23686 23690 28
18953 23691 23692 28
18954 23691 23693 28
18955 23691 23694 28
18956 23691 23695 28
18957 23696 23697 28
18958 23696 23698 28
18959 23696 23699 28
18960 23696 23700 28
18961 23701 23702 28
18962 23701 23703 28
18963 23701 23704 28
18964 23701 23705 28
18965 23706 23707 28
18966 23706 23708 28
18967 23706 23709 28
18968 23706 23710 28
18969 23711 23712 28
18970 23711 23713 28
18971 23711 23714 28
18972 23711 23715 28
18973 23716 23717 28
18974 23716 23718 28
18975 23716 23719 28
18976 23716 23720 28
18977 23721 23722 28
18978 23721 23723 28
18979 23721 23724 28
18980 23721 23725 28
18981 23726 23727 28
18982 23726 23728 28
18983 23726 23729 28
18984 23726 23730 28
18985 23731 23732 28
18986 23731 23733 28
18987 23731 23734 28
18988 23731 23735 28
18989 23736 23737 28
18990 23736 23738 28
18991 23736 23739 28
18992 23736 23740 28
18993 23741 23742 28
18994 23741 23743 28
18995 23741 23744 28
18996 23741 23745 28
18997 23746 23747 28
18998 23746 23748 28
18999 23746 23749 28
19000 23746 23750 28
19001 23751 23752 28
19002 23751 23753 28
19003 23751 23754 28
19004 23751 23755 28
19005 23756 23757 28
19006 23756 23758 28
19007 23756 23759 28
19008 23756 23760 28
19009 23761 23762 28
19010 23761 23763 28
19011 23761 23764 28
19012 23761 23765 28
19013 23766 23767 28
19014 23766 23768 28
19015 23766 23769 28
19016 23766 23770 28
19017 23771 23772 28
19018 23771 23773 28
19019 23771 23774 28
19020 23771 23775 28
19021 23776 23777 28
19022 23776 23778 28
19023 23776 23779 28
19024 23776 23780 28
19025 23781 23782 28
19026 23781 23783 28
19027 23781 23784 28
19028 23781 23785 28
19029 23786 23787 28
19030 23786 23788 28
19031 23786 23789 28
19032 23786 23790 28
19033 23791 23792 28
19034 23791 23793 28
19035 23791 23794 28
19036 23791 23795 28
19037 23796 23797 28
19038 23796 23798 28
19039 23796 23799 28
19040 23796 23800 28
19041 23801 23802 28
19042 23801 23803 28
19043 23801 23804 28
19044 23801 23805 28
19045 23806 23807 28
19046 23806 23808 28
19047 23806 23809 28
19048 23806 23810 28
19049 23811 23812 28
19050 23811 23813 28
19051 23811 23814 28
19052 23811 23815 28
19053 23816 23817 28
19054 23816 23818 28
19055 23816 23819 28
19056 23816 23820 28
19057 23821 23822 28
19058 23821 23823 28
19059 23821 23824 28
19060 23821 23825 28
19061 23826 23827 28
19062 23826 23828 28
19063 23826 23829 28
19064 23826 23830 28
19065 23831 23832 28
19066 23831 23833 28
19067 23831 23834 28
19068 23831 23835 28
19069 23836 23837 28
19070 23836 23838 28
19071 23836 23839 28
19072 23836 23840 28
19073 23841 23842 28
19074 23841 23843 28
19075 23841 23844 28
19076 23841 23845 28
19077 23846 23847 28
19078 23846 23848 28
19079 23846 23849 28
19080 23846 23850 28
19081 23851 23852 28
19082 23851 23853 28
19083 23851 23854 28
19084 23851 23855 28
19085 23856 23857 28
19086 23856 23858 28
19087 23856 23859 28
19088 23856 23860 28
19089 23861 23862 28
19090 23861 23863 28
19091 23861 23864 28
19092 23861 23865 28
19093 23866 23867 28
19094 23866 23868 28
19095 23866 23869 28
19096 23866 23870 28
19097 23871 23872 28
19098 23871 23873 28
19099 23871 23874 28
19100 23871 23875 28
19101 23876 23877 28
19102 23876 23878 28
19103 23876 23879 28
19104 23876 23880 28
19105 23881 23882 28
19106 23881 23883 28
19107 23881 23884 28
19108 23881 23885 28
19109 23886 23887 28
19110 23886 23888 28
19111 23886 23889 28
19112 23886 23890 28
19113 23891 23892 28
19114 23891 23893 28
19115 23891 23894 28
19116 23891 23895 28
19117 23896 23897 28
19118 23896 23898 28
19119 23896 23899 28
19120 23896 23900 28
19121 23901 23902 28
19122 23901 23903 28
19123 23901 23904 28
19124 23901 23905 28
19125 23906 23907 28
19126 23906 23908 28
19127 23906 23909 28
19128 23906 23910 28
19129 23911 23912 28
19130 23911 23913 28
19131 23911 23914 28
19132 23911 23915 28
19133 23916 23917 28
19134 23916 23918 28
19135 23916 23919 28
19136 23916 23920 28
19137 23921 23922 28
19138 23921 23923 28
19139 23921 23924 28
19140 23921 23925 28
19141 23926 23927 28
19142 23926 23928 28
19143 23926 23929 28
19144 23926 23930 28
19145 23931 23932 28
19146 23931 23933 28
19147 23931 23934 28
19148 23931 23935 28
19149 23936 23937 28
19150 23936 23938 28
19151 23936 23939 28
19152 23936 23940 28
19153 23941 23942 28
19154 23941 23943 28
19155 23941 23944 28
19156 23941 23945 28
19157 23946 23947 28
19158 23946 23948 28
19159 23946 23949 28
19160 23946 23950 28
19161 23951 23952 28
19162 23951 23953 28
19163 23951 23954 28
19164 23951 23955 28
19165 23956 23957 28
19166 23956 23958 28
19167 23956 23959 28
19168 23956 23960 28
19169 23961 23962 28
19170 23961 23963 28
19171 23961 23964 28
19172 23961 23965 28
19173 23966 23967 28
19174 23966 23968 28
19175 23966 23969 28
19176 23966 23970 28
19177 23971 23972 28
19178 23971 23973 28
19179 23971 23974 28
19180 23971 23975 28
19181 23976 23977 28
19182 23976 23978 28
19183 23976 23979 28
19184 23976 23980 28
19185 23981 23982 28
19186 23981 23983 28
19187 23981 23984 28
19188 23981 23985 28
19189 23986 23987 28
19190 23986 23988 28
19191 23986 23989 28
19192 23986 23990 28
19193 23991 23992 28
19194 23991 23993 28
19195 23991 23994 28
19196 23991 23995 28
19197 23996 23997 28
19198 23996 23998 28
19199 23996 23999 28
19200 23996 24000 28
19201 24001 24002 28
19202 24001 24003 28
19203 24001 24004 28
19204 24001 24005 28
19205 24006 24007 28
19206 24006 24008 28
19207 24006 24009 28
19208 24006 24010 28
19209 24011 24012 28
19210 24011 24013 28
19211 24011 24014 28
19212 24011 24015 28
19213 24016 24017 28
19214 24016 24018 28
19215 24016 24019 28
19216 24016 24020 28
19217 24021 24022 28
19218 24021 24023 28
19219 24021 24024 28
19220 24021 24025 28
19221 24026 24027 28
19222 24026 24028 28
19223 24026 24029 28
19224 24026 24030 28
19225 24031 24032 28
19226 24031 24033 28
19227 24031 24034 28
19228 24031 24035 28
19229 24036 24037 28
19230 24036 24038 28
19231 24036 24039 28
19232 24036 24040 28
19233 24041 24042 28
19234 24041 24043 28
19235 24041 24044 28
19236 24041 24045 28
19237 24046 24047 28
19238 24046 24048 28
19239 24046 24049 28
19240 24046 24050 28
19241 24051 24052 28
19242 24051 24053 28
19243 24051 24054 28
19244 24051 24055 28
19245 24056 24057 28
19246 24056 24058 28
19247 24056 24059 28
19248 24056 24060 28
19249 24061 24062 28
19250 24061 24063 28
19251 24061 24064 28
19252 24061 24065 28
19253 24066 24067 28
19254 24066 24068 28
19255 24066 24069 28
19256 24066 24070 28
19257 24071 24072 28
19258 24071 24073 28
19259 24071 24074 28
19260 24071 24075 28
19261 24076 24077 28
19262 24076 24078 28
19263 24076 24079 28
19264 24076 24080 28
19265 24081 24082 28
19266 24081 24083 28
19267 24081 24084 28
19268 24081 24085 28
19269 24086 24087 28
19270 24086 24088 28
19271 24086 24089 28
19272 24086 24090 28
19273 24091 24092 28
19274 24091 24093 28
19275 24091 24094 28
19276 24091 24095 28
19277 24096 24097 28
19278 24096 24098 28
19279 24096 24099 28
19280 24096 24100 28
19281 24101 24102 28
19282 24101 24103 28
19283 24101 24104 28
19284 24101 24105 28
19285 24106 24107 28
19286 24106 24108 28
19287 24106 24109 28
19288 24106 24110 28
19289 24111 24112 28
19290 24111 24113 28
19291 24111 24114 28
19292 24111 24115 28
19293 24116 24117 28
19294 24116 24118 28
19295 24116 24119 28
19296 24116 24120 28
19297 24121 24122 28
19298 24121 24123 28
19299 24121 24124 28
19300 24121 24125 28
19301 24126 24127 28
19302 24126 24128 28
19303 24126 24129 28
19304 24126 24130 28
19305 24131 24132 28
19306 24131 24133 28
19307 24131 24134 28
19308 24131 24135 28
19309 24136 24137 28
19310 24136 24138 28
19311 24136 24139 28
19312 24136 24140 28
19313 24141 24142 28
19314 24141 24143 28
19315 24141 24144 28
19316 24141 24145 28
19317 24146 24147 28
19318 24146 24148 28
19319 24146 24149 28
19320 24146 24150 28
19321 24151 24152 28
19322 24151 24153 28
19323 24151 24154 28
19324 24151 24155 28
19325 24156 24157 28
19326 24156 24158 28
19327 24156 24159 28
19328 24156 24160 28
19329 24161 24162 28
19330 24161 24163 28
19331 24161 24164 28
19332 24161 24165 28
19333 24166 24167 28
19334 24166 24168 28
19335 24166 24169 28
19336 24166 24170 28
19337 24171 24172 28
19338 24171 24173 28
19339 24171 24174 28
19340 24171 24175 28
19341 24176 24177 28
19342 24176 24178 28
19343 24176 24179 28
19344 24176 24180 28
19345 24181 24182 28
19346 24181 24183 28
19347 24181 24184 28
19348 24181 24185 28
19349 24186 24187 28
19350 24186 24188 28
19351 24186 24189 28
19352 24186 24190 28
19353 24191 24192 28
19354 24191 24193 28
19355 24191 24194 28
19356 24191 24195 28
19357 24196 24197 28
19358 24196 24198 28
19359 24196 24199 28
19360 24196 24200 28
19361 24201 24202 28
19362 24201 24203 28
19363 24201 24204 28
19364 24201 24205 28
19365 24206 24207 28
19366 24206 24208 28
19367 24206 24209 28
19368 24206 24210 28
19369 24211 24212 28
19370 24211 24213 28
19371 24211 24214 28
19372 24211 24215 28
19373 24216 24217 28
19374 24216 24218 28
19375 24216 24219 28
19376 24216 24220 28
19377 24221 24222 28
19378 24221 24223 28
19379 24221 24224 28
19380 24221 24225 28
19381 24226 24227 28
19382 24226 24228 28
19383 24226 24229 28
19384 24226 24230 28
19385 24231 24232 28
19386 24231 24233 28
19387 24231 24234 28
19388 24231 24235 28
19389 24236 24237 28
19390 24236 24238 28
19391 24236 24239 28
19392 24236 24240 28
19393 24241 24242 28
19394 24241 24243 28
19395 24241 24244 28
19396 24241 24245 28
19397 24246 24247 28
19398 24246 24248 28
19399 24246 24249 28
19400 24246 24250 28
19401 24251 24252 28
19402 24251 24253 28
19403 24251 24254 28
19404 24251 24255 28
19405 24256 24257 28
19406 24256 24258 28
19407 24256 24259 28
19408 24256 24260 28
19409 24261 24262 28
19410 24261 24263 28
19411 24261 24264 28
19412 24261 24265 28
19413 24266 24267 28
19414 24266 24268 28
19415 24266 24269 28
19416 24266 24270 28
19417 24271 24272 28
19418 24271 24273 28
19419 24271 24274 28
19420 24271 24275 28
19421 24276 24277 28
19422 24276 24278 28
19423 24276 24279 28
19424 24276 24280 28
19425 24281 24282 28
19426 24281 24283 28
19427 24281 24284 28
19428 24281 24285 28
19429 24286 24287 28
19430 24286 24288 28
19431 24286 24289 28
19432 24286 24290 28
19433 24291 24292 28
19434 24291 24293 28
19435 24291 24294 28
19436 24291 24295 28
19437 24296 24297 28
19438 24296 24298 28
19439 24296 24299 28
19440 24296 24300 28
19441 24301 24302 28
19442 24301 24303 28
19443 24301 24304 28
19444 24301 24305 28
19445 24306 24307 28
19446 24306 24308 28
19447 24306 24309 28
19448 24306 24310 28
19449 24311 24312 28
19450 24311 24313 28
19451 24311 24314 28
19452 24311 24315 28
19453 24316 24317 28
19454 24316 24318 28
19455 24316 24319 28
19456 24316 24320 28
19457 24321 24322 28
19458 24321 24323 28
19459 24321 24324 28
19460 24321 24325 28
19461 24326 24327 28
19462 24326 24328 28
19463 24326 24329 28
19464 24326 24330 28
19465 24331 24332 28
19466 24331 24333 28
19467 24331 24334 28
19468 24331 24335 28
19469 24336 24337 28
19470 24336 24338 28
19471 24336 24339 28
19472 24336 24340 28
19473 24341 24342 28
19474 24341 24343 28
19475 24341 24344 28
19476 24341 24345 28
19477 24346 24347 28
19478 24346 24348 28
19479 24346 24349 28
19480 24346 24350 28
19481 24351 24352 28
19482 24351 24353 28
19483 24351 24354 28
19484 24351 24355 28
19485 24356 24357 28
19486 24356 24358 28
19487 24356 24359 28
19488 24356 24360 28
19489 24361 24362 28
19490 24361 24363 28
19491 24361 24364 28
19492 24361 24365 28
19493 24366 24367 28
19494 24366 24368 28
19495 24366 24369 28
19496 24366 24370 28
19497 24371 24372 28
19498 24371 24373 28
19499 24371 24374 28
19500 24371 24375 28
19501 24376 24377 28
19502 24376 24378 28
19503 24376 24379 28
19504 24376 24380 28
19505 24381 24382 28
19506 24381 24383 28
19507 24381 24384 28
19508 24381 24385 28
19509 24386 24387 28
19510 24386 24388 28
19511 24386 24389 28
19512 24386 24390 28
19513 24391 24392 28
19514 24391 24393 28
19515 24391 24394 28
19516 24391 24395 28
19517 24396 24397 28
19518 24396 24398 28
19519 24396 24399 28
19520 24396 24400 28
19521 24401 24402 28
19522 24401 24403 28
19523 24401 24404 28
19524 24401 24405 28
19525 24406 24407 28
19526 24406 24408 28
19527 24406 24409 28
19528 24406 24410 28
19529 24411 24412 28
19530 24411 24413 28
19531 24411 24414 28
19532 24411 24415 28
19533 24416 24417 28
19534 24416 24418 28
19535 24416 24419 28
19536 24416 24420 28
19537 24421 24422 28
19538 24421 24423 28
19539 24421 24424 28
19540 24421 24425 28
19541 24426 24427 28
19542 24426 24428 28
19543 24426 24429 28
19544 24426 24430 28
19545 24431 24432 28
19546 24431 24433 28
19547 24431 24434 28
19548 24431 24435 28
19549 24436 24437 28
19550 24436 24438 28
19551 24436 24439 28
19552 24436 24440 28
19553 24441 24442 28
19554 24441 24443 28
19555 24441 24444 28
19556 24441 24445 28
19557 24446 24447 28
19558 24446 24448 28
19559 24446 24449 28
19560 24446 24450 28
19561 24451 24452 28
19562 24451 24453 28
19563 24451 24454 28
19564 24451 24455 28
19565 24456 24457 28
19566 24456 24458 28
19567 24456 24459 28
19568 24456 24460 28
19569 24461 24462 28
19570 24461 24463 28
19571 24461 24464 28
19572 24461 24465 28
19573 24466 24467 28
19574 24466 24468 28
19575 24466 24469 28
19576 24466 24470 28
19577 24471 24472 28
19578 24471 24473 28
19579 24471 24474 28
19580 24471 24475 28
19581 24476 24477 28
19582 24476 24478 28
19583 24476 24479 28
19584 24476 24480 28
19585 24481 24482 28
19586 24481 24483 28
19587 24481 24484 28
19588 24481 24485 28
19589 24486 24487 28
19590 24486 24488 28
19591 24486 24489 28
19592 24486 24490 28
19593 24491 24492 28
19594 24491 24493 28
19595 24491 24494 28
19596 24491 24495 28
19597 24496 24497 28
19598 24496 24498 28
19599 24496 24499 28
19600 24496 24500 28
19601 24501 24502 28
19602 24501 24503 28
19603 24501 24504 28
19604 24501 24505 28
19605 24506 24507 28
19606 24506 24508 28
19607 24506 24509 28
19608 24506 24510 28
19609 24511 24512 28
19610 24511 24513 28
19611 24511 24514 28
19612 24511 24515 28
19613 24516 24517 28
19614 24516 24518 28
19615 24516 24519 28
19616 24516 24520 28
19617 24521 24522 28
19618 24521 24523 28
19619 24521 24524 28
19620 24521 24525 28
19621 24526 24527 28
19622 24526 24528 28
19623 24526 24529 28
19624 24526 24530 28
19625 24531 24532 28
19626 24531 24533 28
19627 24531 24534 28
19628 24531 24535 28
19629 24536 24537 28
19630 24536 24538 28
19631 24536 24539 28
19632 24536 24540 28
19633 24541 24542 28
19634 24541 24543 28
19635 24541 24544 28
19636 24541 24545 28
19637 24546 24547 28
19638 24546 24548 28
19639 24546 24549 28
19640 24546 24550 28
19641 24551 24552 28
19642 24551 24553 28
19643 24551 24554 28
19644 24551 24555 28
19645 24556 24557 28
19646 24556 24558 28
19647 24556 24559 28
19648 24556 24560 28
19649 24561 24562 28
19650 24561 24563 28
19651 24561 24564 28
19652 24561 24565 28
19653 24566 24567 28
19654 24566 24568 28
19655 24566 24569 28
19656 24566 24570 28
19657 24571 24572 28
19658 24571 24573 28
19659 24571 24574 28
19660 24571 24575 28
19661 24576 24577 28
19662 24576 24578 28
19663 24576 24579 28
19664 24576 24580 28
19665 24581 24582 28
19666 24581 24583 28
19667 24581 24584 28
19668 24581 24585 28
19669 24586 24587 28
19670 24586 24588 28
19671 24586 24589 28
19672 24586 24590 28
19673 24591 24592 28
19674 24591 24593 28
19675 24591 24594 28
19676 24591 24595 28
19677 24596 24597 28
19678 24596 24598 28
19679 24596 24599 28
19680 24596 24600 28
19681 24601 24602 28
19682 24601 24603 28
19683 24601 24604 28
19684 24601 24605 28
19685 24606 24607 28
19686 24606 24608 28
19687 24606 24609 28
19688 24606 24610 28
19689 24611 24612 28
19690 24611 24613 28
19691 24611 24614 28
19692 24611 24615 28
19693 24616 24617 28
19694 24616 24618 28
19695 24616 24619 28
19696 24616 24620 28
19697 24621 24622 28
19698 24621 24623 28
19699 24621 24624 28
19700 24621 24625 28
19701 24626 24627 28
19702 24626 24628 28
19703 24626 24629 28
19704 24626 24630 28
19705 24631 24632 28
19706 24631 24633 28
19707 24631 24634 28
19708 24631 24635 28
19709 24636 24637 28
19710 24636 24638 28
19711 24636 24639 28
19712 24636 24640 28
19713 24641 24642 28
19714 24641 24643 28
19715 24641 24644 28
19716 24641 24645 28
19717 24646 24647 28
19718 24646 24648 28
19719 24646 24649 28
19720 24646 24650 28
19721 24651 24652 28
19722 24651 24653 28
19723 24651 24654 28
19724 24651 24655 28
19725 24656 24657 28
19726 24656 24658 28
19727 24656 24659 28
19728 24656 24660 28
19729 24661 24662 28
19730 24661 24663 28
19731 24661 24664 28
19732 24661 24665 28
19733 24666 24667 28
19734 24666 24668 28
19735 24666 24669 28
19736 24666 24670 28
19737 24671 24672 28
19738 24671 24673 28
19739 24671 24674 28
19740 24671 24675 28
19741 24676 24677 28
19742 24676 24678 28
19743 24676 24679 28
19744 24676 24680 28
19745 24681 24682 28
19746 24681 24683 28
19747 24681 24684 28
19748 24681 24685 28
19749 24686 24687 28
19750 24686 24688 28
19751 24686 24689 28
19752 24686 24690 28
19753 24691 24692 28
19754 24691 24693 28
19755 24691 24694 28
19756 24691 24695 28
19757 24696 24697 28
19758 24696 24698 28
19759 24696 24699 28
19760 24696 24700 28
19761 24701 24702 28
19762 24701 24703 28
19763 24701 24704 28
19764 24701 24705 28
19765 24706 24707 28
19766 24706 24708 28
19767 24706 24709 28
19768 24706 24710 28
19769 24711 24712 28
19770 24711 24713 28
19771 24711 24714 28
19772 24711 24715 28
19773 24716 24717 28
19774 24716 24718 28
19775 24716 24719 28
19776 24716 24720 28
19777 24721 24722 28
19778 24721 24723 28
19779 24721 24724 28
19780 24721 24725 28
19781 24726 24727 28
19782 24726 24728 28
19783 24726 24729 28
19784 24726 24730 28
19785 24731 24732 28
19786 24731 24733 28
19787 24731 24734 28
19788 24731 24735 28
19789 24736 24737 28
19790 24736 24738 28
19791 24736 24739 28
19792 24736 24740 28
19793 24741 24742 28
19794 24741 24743 28
19795 24741 24744 28
19796 24741 24745 28
19797 24746 24747 28
19798 24746 24748 28
19799 24746 24749 28
19800 24746 24750 28
19801 24751 24752 28
19802 24751 24753 28
19803 24751 24754 28
19804 24751 24755 28
19805 24756 24757 28
19806 24756 24758 28
19807 24756 24759 28
19808 24756 24760 28
19809 24761 24762 28
19810 24761 24763 28
19811 24761 24764 28
19812 24761 24765 28
19813 24766 24767 28
19814 24766 24768 28
19815 24766 24769 28
19816 24766 24770 28
19817 24771 24772 28
19818 24771 24773 28
19819 24771 24774 28
19820 24771 24775 28
19821 24776 24777 28
19822 24776 24778 28
19823 24776 24779 28
19824 24776 24780 28
19825 24781 24782 28
19826 24781 24783 28
19827 24781 24784 28
19828 24781 24785 28
19829 24786 24787 28
19830 24786 24788 28
19831 24786 24789 28
19832 24786 24790 28
19833 24791 24792 28
19834 24791 24793 28
19835 24791 24794 28
19836 24791 24795 28
19837 24796 24797 28
19838 24796 24798 28
19839 24796 24799 28
19840 24796 24800 28
19841 24801 24802 28
19842 24801 24803 28
19843 24801 24804 28
19844 24801 24805 28
19845 24806 24807 28
19846 24806 24808 28
19847 24806 24809 28
19848 24806 24810 28
19849 24811 24812 28
19850 24811 24813 28
19851 24811 24814 28
19852 24811 24815 28
19853 24816 24817 28
19854 24816 24818 28
19855 24816 24819 28
19856 24816 24820 28
19857 24821 24822 28
19858 24821 24823 28
19859 24821 24824 28
19860 24821 24825 28
19861 24826 24827 28
19862 24826 24828 28
19863 24826 24829 28
19864 24826 24830 28
19865 24831 24832 28
19866 24831 24833 28
19867 24831 24834 28
19868 24831 24835 28
19869 24836 24837 28
19870 24836 24838 28
19871 24836 24839 28
19872 24836 24840 28
19873 24841 24842 28
19874 24841 24843 28
19875 24841 24844 28
19876 24841 24845 28
19877 24846 24847 28
19878 24846 24848 28
19879 24846 24849 28
19880 24846 24850 28
19881 24851 24852 28
19882 24851 24853 28
19883 24851 24854 28
19884 24851 24855 28
19885 24856 24857 28
19886 24856 24858 28
19887 24856 24859 28
19888 24856 24860 28
19889 24861 24862 28
19890 24861 24863 28
19891 24861 24864 28
19892 24861 24865 28
19893 24866 24867 28
19894 24866 24868 28
19895 24866 24869 28
19896 24866 24870 28
19897 24871 24872 28
19898 24871 24873 28
19899 24871 24874 28
19900 24871 24875 28
19901 24876 24877 28
19902 24876 24878 28
19903 24876 24879 28
19904 24876 24880 28
19905 24881 24882 28
19906 24881 24883 28
19907 24881 24884 28
19908 24881 24885 28
19909 24886 24887 28
19910 24886 24888 28
19911 24886 24889 28
19912 24886 24890 28
19913 24891 24892 28
19914 24891 24893 28
19915 24891 24894 28
19916 24891 24895 28
19917 24896 24897 28
19918 24896 24898 28
19919 24896 24899 28
19920 24896 24900 28
19921 24901 24902 28
19922 24901 24903 28
19923 24901 24904 28
19924 24901 24905 28
19925 24906 24907 28
19926 24906 24908 28
19927 24906 24909 28
19928 24906 24910 28
19929 24911 24912 28
19930 24911 24913 28
19931 24911 24914 28
19932 24911 24915 28
19933 24916 24917 28
19934 24916 24918 28
19935 24916 24919 28
19936 24916 24920 28
19937 24921 24922 28
19938 24921 24923 28
19939 24921 24924 28
19940 24921 24925 28
19941 24926 24927 28
19942 24926 24928 28
19943 24926 24929 28
19944 24926 24930 28
19945 24931 24932 28
19946 24931 24933 28
19947 24931 24934 28
19948 24931 24935 28
19949 24936 24937 28
19950 24936 24938 28
19951 24936 24939 28
19952 24936 24940 28
19953 24941 24942 28
19954 24941 24943 28
19955 24941 24944 28
19956 24941 24945 28
19957 24946 24947 28
19958 24946 24948 28
19959 24946 24949 28
19960 24946 24950 28
19961 24951 24952 28
19962 24951 24953 28
19963 24951 24954 28
19964 24951 24955 28
19965 24956 24957 28
19966 24956 24958 28
19967 24956 24959 28
19968 24956 24960 28
19969 24961 24962 28
19970 24961 24963 28
19971 24961 24964 28
19972 24961 24965 28
19973 24966 24967 28
19974 24966 24968 28
19975 24966 24969 28
19976 24966 24970 28
19977 24971 24972 28
19978 24971 24973 28
19979 24971 24974 28
19980 24971 24975 28
19981 24976 24977 28
19982 24976 24978 28
19983 24976 24979 28
19984 24976 24980 28
19985 24981 24982 28
19986 24981 24983 28
19987 24981 24984 28
19988 24981 24985 28
19989 24986 24987 28
19990 24986 24988 28
19991 24986 24989 28
19992 24986 24990 28
19993 24991 24992 28
19994 24991 24993 28
19995 24991 24994 28
19996 24991 24995 28
19997 24996 24997 28
19998 24996 24998 28
19999 24996 24999 28
20000 24996 25000 28
20001 25001 25002 28
20002 25001 25003 28
20003 25001 25004 28
20004 25001 25005 28
20005 25006 25007 28
20006 25006 25008 28
20007 25006 25009 28
20008 25006 25010 28
20009 25011 25012 28
20010 25011 25013 28
20011 25011 25014 28
20012 25011 25015 28
20013 25016 25017 28
20014 25016 25018 28
20015 25016 25019 28
20016 25016 25020 28
20017 25021 25022 28
20018 25021 25023 28
20019 25021 25024 28
20020 25021 25025 28
20021 25026 25027 28
20022 25026 25028 28
20023 25026 25029 28
20024 25026 25030 28
20025 25031 25032 28
20026 25031 25033 28
20027 25031 25034 28
20028 25031 25035 28
20029 25036 25037 28
20030 25036 25038 28
20031 25036 25039 28
20032 25036 25040 28
20033 25041 25042 28
20034 25041 25043 28
20035 25041 25044 28
20036 25041 25045 28
20037 25046 25047 28
20038 25046 25048 28
20039 25046 25049 28
20040 25046 25050 28
20041 25051 25052 28
20042 25051 25053 28
20043 25051 25054 28
20044 25051 25055 28
20045 25056 25057 28
20046 25056 25058 28
20047 25056 25059 28
20048 25056 25060 28
20049 25061 25062 28
20050 25061 25063 28
20051 25061 25064 28
20052 25061 25065 28
20053 25066 25067 28
20054 25066 25068 28
20055 25066 25069 28
20056 25066 25070 28
20057 25071 25072 28
20058 25071 25073 28
20059 25071 25074 28
20060 25071 25075 28
20061 25076 25077 28
20062 25076 25078 28
20063 25076 25079 28
20064 25076 25080 28
20065 25081 25082 28
20066 25081 25083 28
20067 25081 25084 28
20068 25081 25085 28
20069 25086 25087 28
20070 25086 25088 28
20071 25086 25089 28
20072 25086 25090 28
20073 25091 25092 28
20074 25091 25093 28
20075 25091 25094 28
20076 25091 25095 28
20077 25096 25097 28
20078 25096 25098 28
20079 25096 25099 28
20080 25096 25100 28
20081 25101 25102 28
20082 25101 25103 28
20083 25101 25104 28
20084 25101 25105 28
20085 25106 25107 28
20086 25106 25108 28
20087 25106 25109 28
20088 25106 25110 28
20089 25111 25112 28
20090 25111 25113 28
20091 25111 25114 28
20092 25111 25115 28
20093 25116 25117 28
20094 25116 25118 28
20095 25116 25119 28
20096 25116 25120 28
20097 25121 25122 28
20098 25121 25123 28
20099 25121 25124 28
20100 25121 25125 28
20101 25126 25127 28
20102 25126 25128 28
20103 25126 25129 28
20104 25126 25130 28
20105 25131 25132 28
20106 25131 25133 28
20107 25131 25134 28
20108 25131 25135 28
20109 25136 25137 28
20110 25136 25138 28
20111 25136 25139 28
20112 25136 25140 28
20113 25141 25142 28
20114 25141 25143 28
20115 25141 25144 28
20116 25141 25145 28
20117 25146 25147 28
20118 25146 25148 28
20119 25146 25149 28
20120 25146 25150 28
20121 25151 25152 28
20122 25151 25153 28
20123 25151 25154 28
20124 25151 25155 28
20125 25156 25157 28
20126 25156 25158 28
20127 25156 25159 28
20128 25156 25160 28
20129 25161 25162 28
20130 25161 25163 28
20131 25161 25164 28
20132 25161 25165 28
20133 25166 25167 28
20134 25166 25168 28
20135 25166 25169 28
20136 25166 25170 28
20137 25171 25172 28
20138 25171 25173 28
20139 25171 25174 28
20140 25171 25175 28
20141 25176 25177 28
20142 25176 25178 28
20143 25176 25179 28
20144 25176 25180 28
20145 25181 25182 28
20146 25181 25183 28
20147 25181 25184 28
20148 25181 25185 28
20149 25186 25187 28
20150 25186 25188 28
20151 25186 25189 28
20152 25186 25190 28
20153 25191 25192 28
20154 25191 25193 28
20155 25191 25194 28
20156 25191 25195 28
20157 25196 25197 28
20158 25196 25198 28
20159 25196 25199 28
20160 25196 25200 28
20161 25201 25202 28
20162 25201 25203 28
20163 25201 25204 28
20164 25201 25205 28
20165 25206 25207 28
20166 25206 25208 28
20167 25206 25209 28
20168 25206 25210 28
20169 25211 25212 28
20170 25211 25213 28
20171 25211 25214 28
20172 25211 25215 28
20173 25216 25217 28
20174 25216 25218 28
20175 25216 25219 28
20176 25216 25220 28
20177 25221 25222 28
20178 25221 25223 28
20179 25221 25224 28
20180 25221 25225 28
20181 25226 25227 28
20182 25226 25228 28
20183 25226 25229 28
20184 25226 25230 28
20185 25231 25232 28
20186 25231 25233 28
20187 25231 25234 28
20188 25231 25235 28
20189 25236 25237 28
20190 25236 25238 28
20191 25236 25239 28
20192 25236 25240 28
20193 25241 25242 28
20194 25241 25243 28
20195 25241 25244 28
20196 25241 25245 28
20197 25246 25247 28
20198 25246 25248 28
20199 25246 25249 28
20200 25246 25250 28
20201 25251 25252 28
20202 25251 25253 28
20203 25251 25254 28
20204 25251 25255 28
20205 25256 25257 28
20206 25256 25258 28
20207 25256 25259 28
20208 25256 25260 28
20209 25261 25262 28
20210 25261 25263 28
20211 25261 25264 28
20212 25261 25265 28
20213 25266 25267 28
20214 25266 25268 28
20215 25266 25269 28
20216 25266 25270 28
20217 25271 25272 28
20218 25271 25273 28
20219 25271 25274 28
20220 25271 25275 28
20221 25276 25277 28
20222 25276 25278 28
20223 25276 25279 28
20224 25276 25280 28
20225 25281 25282 28
20226 25281 25283 28
20227 25281 25284 28
20228 25281 25285 28
20229 25286 25287 28
20230 25286 25288 28
20231 25286 25289 28
20232 25286 25290 28
20233 25291 25292 28
20234 25291 25293 28
20235 25291 25294 28
20236 25291 25295 28
20237 25296 25297 28
20238 25296 25298 28
20239 25296 25299 28
20240 25296 25300 28
20241 25301 25302 28
20242 25301 25303 28
20243 25301 25304 28
20244 25301 25305 28
20245 25306 25307 28
20246 25306 25308 28
20247 25306 25309 28
20248 25306 25310 28
20249 25311 25312 28
20250 25311 25313 28
20251 25311 25314 28
20252 25311 25315 28
20253 25316 25317 28
20254 25316 25318 28
20255 25316 25319 28
20256 25316 25320 28
20257 25321 25322 28
20258 25321 25323 28
20259 25321 25324 28
20260 25321 25325 28
20261 25326 25327 28
20262 25326 25328 28
20263 25326 25329 28
20264 25326 25330 28
20265 25331 25332 28
20266 25331 25333 28
20267 25331 25334 28
20268 25331 25335 28
20269 25336 25337 28
20270 25336 25338 28
20271 25336 25339 28
20272 25336 25340 28
20273 25341 25342 28
20274 25341 25343 28
20275 25341 25344 28
20276 25341 25345 28
20277 25346 25347 28
20278 25346 25348 28
20279 25346 25349 28
20280 25346 25350 28
20281 25351 25352 28
20282 25351 25353 28
20283 25351 25354 28
20284 25351 25355 28
20285 25356 25357 28
20286 25356 25358 28
20287 25356 25359 28
20288 25356 25360 28
20289 25361 25362 28
20290 25361 25363 28
20291 25361 25364 28
20292 25361 25365 28
20293 25366 25367 28
20294 25366 25368 28
20295 25366 25369 28
20296 25366 25370 28
20297 25371 25372 28
20298 25371 25373 28
20299 25371 25374 28
20300 25371 25375 28
20301 25376 25377 28
20302 25376 25378 28
20303 25376 25379 28
20304 25376 25380 28
20305 25381 25382 28
20306 25381 25383 28
20307 25381 25384 28
20308 25381 25385 28
20309 25386 25387 28
20310 25386 25388 28
20311 25386 25389 28
20312 25386 25390 28
20313 25391 25392 28
20314 25391 25393 28
20315 25391 25394 28
20316 25391 25395 28
20317 25396 25397 28
20318 25396 25398 28
20319 25396 25399 28
20320 25396 25400 28
20321 25401 25402 28
20322 25401 25403 28
20323 25401 25404 28
20324 25401 25405 28
20325 25406 25407 28
20326 25406 25408 28
20327 25406 25409 28
20328 25406 25410 28
20329 25411 25412 28
20330 25411 25413 28
20331 25411 25414 28
20332 25411 25415 28
20333 25416 25417 28
20334 25416 25418 28
20335 25416 25419 28
20336 25416 25420 28
20337 25421 25422 28
20338 25421 25423 28
20339 25421 25424 28
20340 25421 25425 28
20341 25426 25427 28
20342 25426 25428 28
20343 25426 25429 28
20344 25426 25430 28
20345 25431 25432 28
20346 25431 25433 28
20347 25431 25434 28
20348 25431 25435 28
20349 25436 25437 28
20350 25436 25438 28
20351 25436 25439 28
20352 25436 25440 28
20353 25441 25442 28
20354 25441 25443 28
20355 25441 25444 28
20356 25441 25445 28
20357 25446 25447 28
20358 25446 25448 28
20359 25446 25449 28
20360 25446 25450 28
20361 25451 25452 28
20362 25451 25453 28
20363 25451 25454 28
20364 25451 25455 28
20365 25456 25457 28
20366 25456 25458 28
20367 25456 25459 28
20368 25456 25460 28
20369 25461 25462 28
20370 25461 25463 28
20371 25461 25464 28
20372 25461 25465 28
20373 25466 25467 28
20374 25466 25468 28
20375 25466 25469 28
20376 25466 25470 28
20377 25471 25472 28
20378 25471 25473 28
20379 25471 25474 28
20380 25471 25475 28
20381 25476 25477 28
20382 25476 25478 28
20383 25476 25479 28
20384 25476 25480 28
20385 25481 25482 28
20386 25481 25483 28
20387 25481 25484 28
20388 25481 25485 28
20389 25486 25487 28
20390 25486 25488 28
20391 25486 25489 28
20392 25486 25490 28
20393 25491 25492 28
20394 25491 25493 28
20395 25491 25494 28
20396 25491 25495 28
20397 25496 25497 28
20398 25496 25498 28
20399 25496 25499 28
20400 25496 25500 28
20401 25501 25502 28
20402 25501 25503 28
20403 25501 25504 28
20404 25501 25505 28
20405 25506 25507 28
20406 25506 25508 28
20407 25506 25509 28
20408 25506 25510 28
20409 25511 25512 28
20410 25511 25513 28
20411 25511 25514 28
20412 25511 25515 28
20413 25516 25517 28
20414 25516 25518 28
20415 25516 25519 28
20416 25516 25520 28
20417 25521 25522 28
20418 25521 25523 28
20419 25521 25524 28
20420 25521 25525 28
20421 25526 25527 28
20422 25526 25528 28
20423 25526 25529 28
20424 25526 25530 28
20425 25531 25532 28
20426 25531 25533 28
20427 25531 25534 28
20428 25531 25535 28
20429 25536 25537 28
20430 25536 25538 28
20431 25536 25539 28
20432 25536 25540 28
20433 25541 25542 28
20434 25541 25543 28
20435 25541 25544 28
20436 25541 25545 28
20437 25546 25547 28
20438 25546 25548 28
20439 25546 25549 28
20440 25546 25550 28
20441 25551 25552 28
20442 25551 25553 28
20443 25551 25554 28
20444 25551 25555 28
20445 25556 25557 28
20446 25556 25558 28
20447 25556 25559 28
20448 25556 25560 28
20449 25561 25562 28
20450 25561 25563 28
20451 25561 25564 28
20452 25561 25565 28
20453 25566 25567 28
20454 25566 25568 28
20455 25566 25569 28
20456 25566 25570 28
20457 25571 25572 28
20458 25571 25573 28
20459 25571 25574 28
20460 25571 25575 28
20461 25576 25577 28
20462 25576 25578 28
20463 25576 25579 28
20464 25576 25580 28
20465 25581 25582 28
20466 25581 25583 28
20467 25581 25584 28
20468 25581 25585 28
20469 25586 25587 28
20470 25586 25588 28
20471 25586 25589 28
20472 25586 25590 28
20473 25591 25592 28
20474 25591 25593 28
20475 25591 25594 28
20476 25591 25595 28
20477 25596 25597 28
20478 25596 25598 28
20479 25596 25599 28
20480 25596 25600 28
20481 25601 25602 28
20482 25601 25603 28
20483 25601 25604 28
20484 25601 25605 28
20485 25606 25607 28
20486 25606 25608 28
20487 25606 25609 28
20488 25606 25610 28
20489 25611 25612 28
20490 25611 25613 28
20491 25611 25614 28
20492 25611 25615 28
20493 25616 25617 28
20494 25616 25618 28
20495 25616 25619 28
20496 25616 25620 28
20497 25621 25622 28
20498 25621 25623 28
20499 25621 25624 28
20500 25621 25625 28
20501 25626 25627 28
20502 25626 25628 28
20503 25626 25629 28
20504 25626 25630 28
20505 25631 25632 28
20506 25631 25633 28
20507 25631 25634 28
20508 25631 25635 28
20509 25636 25637 28
20510 25636 25638 28
20511 25636 25639 28
20512 25636 25640 28
20513 25641 25642 28
20514 25641 25643 28
20515 25641 25644 28
20516 25641 25645 28
20517 25646 25647 28
20518 25646 25648 28
20519 25646 25649 28
20520 25646 25650 28
20521 25651 25652 28
20522 25651 25653 28
20523 25651 25654 28
20524 25651 25655 28
20525 25656 25657 28
20526 25656 25658 28
20527 25656 25659 28
20528 25656 25660 28
20529 25661 25662 28
20530 25661 25663 28
20531 25661 25664 28
20532 25661 25665 28
20533 25666 25667 28
20534 25666 25668 28
20535 25666 25669 28
20536 25666 25670 28
20537 25671 25672 28
20538 25671 25673 28
20539 25671 25674 28
20540 25671 25675 28
20541 25676 25677 28
20542 25676 25678 28
20543 25676 25679 28
20544 25676 25680 28
20545 25681 25682 28
20546 25681 25683 28
20547 25681 25684 28
20548 25681 25685 28
20549 25686 25687 28
20550 25686 25688 28
20551 25686 25689 28
20552 25686 25690 28
20553 25691 25692 28
20554 25691 25693 28
20555 25691 25694 28
20556 25691 25695 28
20557 25696 25697 28
20558 25696 25698 28
20559 25696 25699 28
20560 25696 25700 28
20561 25701 25702 28
20562 25701 25703 28
20563 25701 25704 28
20564 25701 25705 28
20565 25706 25707 28
20566 25706 25708 28
20567 25706 25709 28
20568 25706 25710 28
20569 25711 25712 28
20570 25711 25713 28
20571 25711 25714 28
20572 25711 25715 28
20573 25716 25717 28
20574 25716 25718 28
20575 25716 25719 28
20576 25716 25720 28
20577 25721 25722 28
20578 25721 25723 28
20579 25721 25724 28
20580 25721 25725 28
20581 25726 25727 28
20582 25726 25728 28
20583 25726 25729 28
20584 25726 25730 28
20585 25731 25732 28
20586 25731 25733 28
20587 25731 25734 28
20588 25731 25735 28
20589 25736 25737 28
20590 25736 25738 28
20591 25736 25739 28
20592 25736 25740 28
20593 25741 25742 28
20594 25741 25743 28
20595 25741 25744 28
20596 25741 25745 28
20597 25746 25747 28
20598 25746 25748 28
20599 25746 25749 28
20600 25746 25750 28
20601 25751 25752 28
20602 25751 25753 28
20603 25751 25754 28
20604 25751 25755 28
20605 25756 25757 28
20606 25756 25758 28
20607 25756 25759 28
20608 25756 25760 28
20609 25761 25762 28
20610 25761 25763 28
20611 25761 25764 28
20612 25761 25765 28
20613 25766 25767 28
20614 25766 25768 28
20615 25766 25769 28
20616 25766 25770 28
20617 25771 25772 28
20618 25771 25773 28
20619 25771 25774 28
20620 25771 25775 28
20621 25776 25777 28
20622 25776 25778 28
20623 25776 25779 28
20624 25776 25780 28
20625 25781 25782 28
20626 25781 25783 28
20627 25781 25784 28
20628 25781 25785 28
20629 25786 25787 28
20630 25786 25788 28
20631 25786 25789 28
20632 25786 25790 28
20633 25791 25792 28
20634 25791 25793 28
20635 25791 25794 28
20636 25791 25795 28
20637 25796 25797 28
20638 25796 25798 28
20639 25796 25799 28
20640 25796 25800 28
20641 25801 25802 28
20642 25801 25803 28
20643 25801 25804 28
20644 25801 25805 28
20645 25806 25807 28
20646 25806 25808 28
20647 25806 25809 28
20648 25806 25810 28
20649 25811 25812 28
20650 25811 25813 28
20651 25811 25814 28
20652 25811 25815 28
20653 25816 25817 28
20654 25816 25818 28
20655 25816 25819 28
20656 25816 25820 28
20657 25821 25822 28
20658 25821 25823 28
20659 25821 25824 28
20660 25821 25825 28
20661 25826 25827 28
20662 25826 25828 28
20663 25826 25829 28
20664 25826 25830 28
20665 25831 25832 28
20666 25831 25833 28
20667 25831 25834 28
20668 25831 25835 28
20669 25836 25837 28
20670 25836 25838 28
20671 25836 25839 28
20672 25836 25840 28
20673 25841 25842 28
20674 25841 25843 28
20675 25841 25844 28
20676 25841 25845 28
20677 25846 25847 28
20678 25846 25848 28
20679 25846 25849 28
20680 25846 25850 28
20681 25851 25852 28
20682 25851 25853 28
20683 25851 25854 28
20684 25851 25855 28
20685 25856 25857 28
20686 25856 25858 28
20687 25856 25859 28
20688 25856 25860 28
20689 25861 25862 28
20690 25861 25863 28
20691 25861 25864 28
20692 25861 25865 28
20693 25866 25867 28
20694 25866 25868 28
20695 25866 25869 28
20696 25866 25870 28
20697 25871 25872 28
20698 25871 25873 28
20699 25871 25874 28
20700 25871 25875 28
20701 25876 25877 28
20702 25876 25878 28
20703 25876 25879 28
20704 25876 25880 28
20705 25881 25882 28
20706 25881 25883 28
20707 25881 25884 28
20708 25881 25885 28
20709 25886 25887 28
20710 25886 25888 28
20711 25886 25889 28
20712 25886 25890 28
20713 25891 25892 28
20714 25891 25893 28
20715 25891 25894 28
20716 25891 25895 28
20717 25896 25897 28
20718 25896 25898 28
20719 25896 25899 28
20720 25896 25900 28
20721 25901 25902 28
20722 25901 25903 28
20723 25901 25904 28
20724 25901 25905 28
20725 25906 25907 28
20726 25906 25908 28
20727 25906 25909 28
20728 25906 25910 28
20729 25911 25912 28
20730 25911 25913 28
20731 25911 25914 28
20732 25911 25915 28
20733 25916 25917 28
20734 25916 25918 28
20735 25916 25919 28
20736 25916 25920 28
20737 25921 25922 28
20738 25921 25923 28
20739 25921 25924 28
20740 25921 25925 28
20741 25926 25927 28
20742 25926 25928 28
20743 25926 25929 28
20744 25926 25930 28
20745 25931 25932 28
20746 25931 25933 28
20747 25931 25934 28
20748 25931 25935 28
20749 25936 25937 28
20750 25936 25938 28
20751 25936 25939 28
20752 25936 25940 28
20753 25941 25942 28
20754 25941 25943 28
20755 25941 25944 28
20756 25941 25945 28
20757 25946 25947 28
20758 25946 25948 28
20759 25946 25949 28
20760 25946 25950 28
20761 25951 25952 28
20762 25951 25953 28
20763 25951 25954 28
20764 25951 25955 28
20765 25956 25957 28
20766 25956 25958 28
20767 25956 25959 28
20768 25956 25960 28
20769 25961 25962 28
20770 25961 25963 28
20771 25961 25964 28
20772 25961 25965 28
20773 25966 25967 28
20774 25966 25968 28
20775 25966 25969 28
20776 25966 25970 28
20777 25971 25972 28
20778 25971 25973 28
20779 25971 25974 28
20780 25971 25975 28
20781 25976 25977 28
20782 25976 25978 28
20783 25976 25979 28
20784 25976 25980 28
20785 25981 25982 28
20786 25981 25983 28
20787 25981 25984 28
20788 25981 25985 28
20789 25986 25987 28
20790 25986 25988 28
20791 25986 25989 28
20792 25986 25990 28
20793 25991 25992 28
20794 25991 25993 28
20795 25991 25994 28
20796 25991 25995 28
20797 25996 25997 28
20798 25996 25998 28
20799 25996 25999 28
20800 25996 26000 28
20801 26001 26002 28
20802 26001 26003 28
20803 26001 26004 28
20804 26001 26005 28
20805 26006 26007 28
20806 26006 26008 28
20807 26006 26009 28
20808 26006 26010 28
20809 26011 26012 28
20810 26011 26013 28
20811 26011 26014 28
20812 26011 26015 28
20813 26016 26017 28
20814 26016 26018 28
20815 26016 26019 28
20816 26016 26020 28
20817 26021 26022 28
20818 26021 26023 28
20819 26021 26024 28
20820 26021 26025 28
20821 26026 26027 28
20822 26026 26028 28
20823 26026 26029 28
20824 26026 26030 28
20825 26031 26032 28
20826 26031 26033 28
20827 26031 26034 28
20828 26031 26035 28
20829 26036 26037 28
20830 26036 26038 28
20831 26036 26039 28
20832 26036 26040 28
20833 26041 26042 28
20834 26041 26043 28
20835 26041 26044 28
20836 26041 26045 28
20837 26046 26047 28
20838 26046 26048 28
20839 26046 26049 28
20840 26046 26050 28
20841 26051 26052 28
20842 26051 26053 28
20843 26051 26054 28
20844 26051 26055 28
20845 26056 26057 28
20846 26056 26058 28
20847 26056 26059 28
20848 26056 26060 28
20849 26061 26062 28
20850 26061 26063 28
20851 26061 26064 28
20852 26061 26065 28
20853 26066 26067 28
20854 26066 26068 28
20855 26066 26069 28
20856 26066 26070 28
20857 26071 26072 28
20858 26071 26073 28
20859 26071 26074 28
20860 26071 26075 28
20861 26076 26077 28
20862 26076 26078 28
20863 26076 26079 28
20864 26076 26080 28
20865 26081 26082 28
20866 26081 26083 28
20867 26081 26084 28
20868 26081 26085 28
20869 26086 26087 28
20870 26086 26088 28
20871 26086 26089 28
20872 26086 26090 28
20873 26091 26092 28
20874 26091 26093 28
20875 26091 26094 28
20876 26091 26095 28
20877 26096 26097 28
20878 26096 26098 28
20879 26096 26099 28
20880 26096 26100 28
20881 26101 26102 28
20882 26101 26103 28
20883 26101 26104 28
20884 26101 26105 28
20885 26106 26107 28
20886 26106 26108 28
20887 26106 26109 28
20888 26106 26110 28
20889 26111 26112 28
20890 26111 26113 28
20891 26111 26114 28
20892 26111 26115 28
20893 26116 26117 28
20894 26116 26118 28
20895 26116 26119 28
20896 26116 26120 28
20897 26121 26122 28
20898 26121 26123 28
20899 26121 26124 28
20900 26121 26125 28
20901 26126 26127 28
20902 26126 26128 28
20903 26126 26129 28
20904 26126 26130 28
20905 26131 26132 28
20906 26131 26133 28
20907 26131 26134 28
20908 26131 26135 28
20909 26136 26137 28
20910 26136 26138 28
20911 26136 26139 28
20912 26136 26140 28
20913 26141 26142 28
20914 26141 26143 28
20915 26141 26144 28
20916 26141 26145 28
20917 26146 26147 28
20918 26146 26148 28
20919 26146 26149 28
20920 26146 26150 28
20921 26151 26152 28
20922 26151 26153 28
20923 26151 26154 28
20924 26151 26155 28
20925 26156 26157 28
20926 26156 26158 28
20927 26156 26159 28
20928 26156 26160 28
20929 26161 26162 28
20930 26161 26163 28
20931 26161 26164 28
20932 26161 26165 28
20933 26166 26167 28
20934 26166 26168 28
20935 26166 26169 28
20936 26166 26170 28
20937 26171 26172 28
20938 26171 26173 28
20939 26171 26174 28
20940 26171 26175 28
20941 26176 26177 28
20942 26176 26178 28
20943 26176 26179 28
20944 26176 26180 28
20945 26181 26182 28
20946 26181 26183 28
20947 26181 26184 28
20948 26181 26185 28
20949 26186 26187 28
20950 26186 26188 28
20951 26186 26189 28
20952 26186 26190 28
20953 26191 26192 28
20954 26191 26193 28
20955 26191 26194 28
20956 26191 26195 28
20957 26196 26197 28
20958 26196 26198 28
20959 26196 26199 28
20960 26196 26200 28
20961 26201 26202 28
20962 26201 26203 28
20963 26201 26204 28
20964 26201 26205 28
20965 26206 26207 28
20966 26206 26208 28
20967 26206 26209 28
20968 26206 26210 28
20969 26211 26212 28
20970 26211 26213 28
20971 26211 26214 28
20972 26211 26215 28
20973 26216 26217 28
20974 26216 26218 28
20975 26216 26219 28
20976 26216 26220 28
20977 26221 26222 28
20978 26221 26223 28
20979 26221 26224 28
20980 26221 26225 28
20981 26226 26227 28
20982 26226 26228 28
20983 26226 26229 28
20984 26226 26230 28
20985 26231 26232 28
20986 26231 26233 28
20987 26231 26234 28
20988 26231 26235 28
20989 26236 26237 28
20990 26236 26238 28
20991 26236 26239 28
20992 26236 26240 28
20993 26241 26242 28
20994 26241 26243 28
20995 26241 26244 28
20996 26241 26245 28
20997 26246 26247 28
20998 26246 26248 28
20999 26246 26249 28
21000 26246 26250 28
21001 26251 26252 28
21002 26251 26253 28
21003 26251 26254 28
21004 26251 26255 28
21005 26256 26257 28
21006 26256 26258 28
21007 26256 26259 28
21008 26256 26260 28
21009 26261 26262 28
21010 26261 26263 28
21011 26261 26264 28
21012 26261 26265 28
21013 26266 26267 28
21014 26266 26268 28
21015 26266 26269 28
21016 26266 26270 28
21017 26271 26272 28
21018 26271 26273 28
21019 26271 26274 28
21020 26271 26275 28
21021 26276 26277 28
21022 26276 26278 28
21023 26276 26279 28
21024 26276 26280 28
21025 26281 26282 28
21026 26281 26283 28
21027 26281 26284 28
21028 26281 26285 28
21029 26286 26287 28
21030 26286 26288 28
21031 26286 26289 28
21032 26286 26290 28
21033 26291 26292 28
21034 26291 26293 28
21035 26291 26294 28
21036 26291 26295 28
21037 26296 26297 28
21038 26296 26298 28
21039 26296 26299 28
21040 26296 26300 28
21041 26301 26302 28
21042 26301 26303 28
21043 26301 26304 28
21044 26301 26305 28
21045 26306 26307 28
21046 26306 26308 28
21047 26306 26309 28
21048 26306 26310 28
21049 26311 26312 28
21050 26311 26313 28
21051 26311 26314 28
21052 26311 26315 28
21053 26316 26317 28
21054 26316 26318 28
21055 26316 26319 28
21056 26316 26320 28
21057 26321 26322 28
21058 26321 26323 28
21059 26321 26324 28
21060 26321 26325 28
21061 26326 26327 28
21062 26326 26328 28
21063 26326 26329 28
21064 26326 26330 28
21065 26331 26332 28
21066 26331 26333 28
21067 26331 26334 28
21068 26331 26335 28
21069 26336 26337 28
21070 26336 26338 28
21071 26336 26339 28
21072 26336 26340 28
21073 26341 26342 28
21074 26341 26343 28
21075 26341 26344 28
21076 26341 26345 28
21077 26346 26347 28
21078 26346 26348 28
21079 26346 26349 28
21080 26346 26350 28
21081 26351 26352 28
21082 26351 26353 28
21083 26351 26354 28
21084 26351 26355 28
21085 26356 26357 28
21086 26356 26358 28
21087 26356 26359 28
21088 26356 26360 28
21089 26361 26362 28
21090 26361 26363 28
21091 26361 26364 28
21092 26361 26365 28
21093 26366 26367 28
21094 26366 26368 28
21095 26366 26369 28
21096 26366 26370 28
21097 26371 26372 28
21098 26371 26373 28
21099 26371 26374 28
21100 26371 26375 28
21101 26376 26377 28
21102 26376 26378 28
21103 26376 26379 28
21104 26376 26380 28
21105 26381 26382 28
21106 26381 26383 28
21107 26381 26384 28
21108 26381 26385 28
21109 26386 26387 28
21110 26386 26388 28
21111 26386 26389 28
21112 26386 26390 28
21113 26391 26392 28
21114 26391 26393 28
21115 26391 26394 28
21116 26391 26395 28
21117 26396 26397 28
21118 26396 26398 28
21119 26396 26399 28
21120 26396 26400 28
21121 26401 26402 28
21122 26401 26403 28
21123 26401 26404 28
21124 26401 26405 28
21125 26406 26407 28
21126 26406 26408 28
21127 26406 26409 28
21128 26406 26410 28
21129 26411 26412 28
21130 26411 26413 28
21131 26411 26414 28
21132 26411 26415 28
21133 26416 26417 28
21134 26416 26418 28
21135 26416 26419 28
21136 26416 26420 28
21137 26421 26422 28
21138 26421 26423 28
21139 26421 26424 28
21140 26421 26425 28
21141 26426 26427 28
21142 26426 26428 28
21143 26426 26429 28
21144 26426 26430 28
21145 26431 26432 28
21146 26431 26433 28
21147 26431 26434 28
21148 26431 26435 28
21149 26436 26437 28
21150 26436 26438 28
21151 26436 26439 28
21152 26436 26440 28
21153 26441 26442 28
21154 26441 26443 28
21155 26441 26444 28
21156 26441 26445 28
21157 26446 26447 28
21158 26446 26448 28
21159 26446 26449 28
21160 26446 26450 28
21161 26451 26452 28
21162 26451 26453 28
21163 26451 26454 28
21164 26451 26455 28
21165 26456 26457 28
21166 26456 26458 28
21167 26456 26459 28
21168 26456 26460 28
21169 26461 26462 28
21170 26461 26463 28
21171 26461 26464 28
21172 26461 26465 28
21173 26466 26467 28
21174 26466 26468 28
21175 26466 26469 28
21176 26466 26470 28
21177 26471 26472 28
21178 26471 26473 28
21179 26471 26474 28
21180 26471 26475 28
21181 26476 26477 28
21182 26476 26478 28
21183 26476 26479 28
21184 26476 26480 28
21185 26481 26482 28
21186 26481 26483 28
21187 26481 26484 28
21188 26481 26485 28
21189 26486 26487 28
21190 26486 26488 28
21191 26486 26489 28
21192 26486 26490 28
21193 26491 26492 28
21194 26491 26493 28
21195 26491 26494 28
21196 26491 26495 28
21197 26496 26497 28
21198 26496 26498 28
21199 26496 26499 28
21200 26496 26500 28
21201 26501 26502 28
21202 26501 26503 28
21203 26501 26504 28
21204 26501 26505 28
21205 26506 26507 28
21206 26506 26508 28
21207 26506 26509 28
21208 26506 26510 28
21209 26511 26512 28
21210 26511 26513 28
21211 26511 26514 28
21212 26511 26515 28
21213 26516 26517 28
21214 26516 26518 28
21215 26516 26519 28
21216 26516 26520 28
21217 26521 26522 28
21218 26521 26523 28
21219 26521 26524 28
21220 26521 26525 28
21221 26526 26527 28
21222 26526 26528 28
21223 26526 26529 28
21224 26526 26530 28
21225 26531 26532 28
21226 26531 26533 28
21227 26531 26534 28
21228 26531 26535 28
21229 26536 26537 28
21230 26536 26538 28
21231 26536 26539 28
21232 26536 26540 28
21233 26541 26542 28
21234 26541 26543 28
21235 26541 26544 28
21236 26541 26545 28
21237 26546 26547 28
21238 26546 26548 28
21239 26546 26549 28
21240 26546 26550 28
21241 26551 26552 28
21242 26551 26553 28
21243 26551 26554 28
21244 26551 26555 28
21245 26556 26557 28
21246 26556 26558 28
21247 26556 26559 28
21248 26556 26560 28
21249 26561 26562 28
21250 26561 26563 28
21251 26561 26564 28
21252 26561 26565 28
21253 26566 26567 28
21254 26566 26568 28
21255 26566 26569 28
21256 26566 26570 28
21257 26571 26572 28
21258 26571 26573 28
21259 26571 26574 28
21260 26571 26575 28
21261 26576 26577 28
21262 26576 26578 28
21263 26576 26579 28
21264 26576 26580 28
21265 26581 26582 28
21266 26581 26583 28
21267 26581 26584 28
21268 26581 26585 28
21269 26586 26587 28
21270 26586 26588 28
21271 26586 26589 28
21272 26586 26590 28
21273 26591 26592 28
21274 26591 26593 28
21275 26591 26594 28
21276 26591 26595 28
21277 26596 26597 28
21278 26596 26598 28
21279 26596 26599 28
21280 26596 26600 28
21281 26601 26602 28
21282 26601 26603 28
21283 26601 26604 28
21284 26601 26605 28
21285 26606 26607 28
21286 26606 26608 28
21287 26606 26609 28
21288 26606 26610 28
21289 26611 26612 28
21290 26611 26613 28
21291 26611 26614 28
21292 26611 26615 28
21293 26616 26617 28
21294 26616 26618 28
21295 26616 26619 28
21296 26616 26620 28
21297 26621 26622 28
21298 26621 26623 28
21299 26621 26624 28
21300 26621 26625 28
21301 26626 26627 28
21302 26626 26628 28
21303 26626 26629 28
21304 26626 26630 28
21305 26631 26632 28
21306 26631 26633 28
21307 26631 26634 28
21308 26631 26635 28
21309 26636 26637 28
21310 26636 26638 28
21311 26636 26639 28
21312 26636 26640 28
21313 26641 26642 28
21314 26641 26643 28
21315 26641 26644 28
21316 26641 26645 28
21317 26646 26647 28
21318 26646 26648 28
21319 26646 26649 28
21320 26646 26650 28
21321 26651 26652 28
21322 26651 26653 28
21323 26651 26654 28
21324 26651 26655 28
21325 26656 26657 28
21326 26656 26658 28
21327 26656 26659 28
21328 26656 26660 28
21329 26661 26662 28
21330 26661 26663 28
21331 26661 26664 28
21332 26661 26665 28
21333 26666 26667 28
21334 26666 26668 28
21335 26666 26669 28
21336 26666 26670 28
21337 26671 26672 28
21338 26671 26673 28
21339 26671 26674 28
21340 26671 26675 28
21341 26676 26677 28
21342 26676 26678 28
21343 26676 26679 28
21344 26676 26680 28
21345 26681 26682 28
21346 26681 26683 28
21347 26681 26684 28
21348 26681 26685 28
21349 26686 26687 28
21350 26686 26688 28
21351 26686 26689 28
21352 26686 26690 28
21353 26691 26692 28
21354 26691 26693 28
21355 26691 26694 28
21356 26691 26695 28
21357 26696 26697 28
21358 26696 26698 28
21359 26696 26699 28
21360 26696 26700 28
21361 26701 26702 28
21362 26701 26703 28
21363 26701 26704 28
21364 26701 26705 28
21365 26706 26707 28
21366 26706 26708 28
21367 26706 26709 28
21368 26706 26710 28
21369 26711 26712 28
21370 26711 26713 28
21371 26711 26714 28
21372 26711 26715 28
21373 26716 26717 28
21374 26716 26718 28
21375 26716 26719 28
21376 26716 26720 28
21377 26721 26722 28
21378 26721 26723 28
21379 26721 26724 28
21380 26721 26725 28
21381 26726 26727 28
21382 26726 26728 28
21383 26726 26729 28
21384 26726 26730 28
21385 26731 26732 28
21386 26731 26733 28
21387 26731 26734 28
21388 26731 26735 28
21389 26736 26737 28
21390 26736 26738 28
21391 26736 26739 28
21392 26736 26740 28
21393 26741 26742 28
21394 26741 26743 28
21395 26741 26744 28
21396 26741 26745 28
21397 26746 26747 28
21398 26746 26748 28
21399 26746 26749 28
21400 26746 26750 28
21401 26751 26752 28
21402 26751 26753 28
21403 26751 26754 28
21404 26751 26755 28
21405 26756 26757 28
21406 26756 26758 28
21407 26756 26759 28
21408 26756 26760 28
21409 26761 26762 28
21410 26761 26763 28
21411 26761 26764 28
21412 26761 26765 28
21413 26766 26767 28
21414 26766 26768 28
21415 26766 26769 28
21416 26766 26770 28
21417 26771 26772 28
21418 26771 26773 28
21419 26771 26774 28
21420 26771 26775 28
21421 26776 26777 28
21422 26776 26778 28
21423 26776 26779 28
21424 26776 26780 28
21425 26781 26782 28
21426 26781 26783 28
21427 26781 26784 28
21428 26781 26785 28
21429 26786 26787 28
21430 26786 26788 28
21431 26786 26789 28
21432 26786 26790 28
21433 26791 26792 28
21434 26791 26793 28
21435 26791 26794 28
21436 26791 26795 28
21437 26796 26797 28
21438 26796 26798 28
21439 26796 26799 28
21440 26796 26800 28
21441 26801 26802 28
21442 26801 26803 28
21443 26801 26804 28
21444 26801 26805 28
21445 26806 26807 28
21446 26806 26808 28
21447 26806 26809 28
21448 26806 26810 28
21449 26811 26812 28
21450 26811 26813 28
21451 26811 26814 28
21452 26811 26815 28
21453 26816 26817 28
21454 26816 26818 28
21455 26816 26819 28
21456 26816 26820 28
21457 26821 26822 28
21458 26821 26823 28
21459 26821 26824 28
21460 26821 26825 28
21461 26826 26827 28
21462 26826 26828 28
21463 26826 26829 28
21464 26826 26830 28
21465 26831 26832 28
21466 26831 26833 28
21467 26831 26834 28
21468 26831 26835 28
21469 26836 26837 28
21470 26836 26838 28
21471 26836 26839 28
21472 26836 26840 28
21473 26841 26842 28
21474 26841 26843 28
21475 26841 26844 28
21476 26841 26845 28
21477 26846 26847 28
21478 26846 26848 28
21479 26846 26849 28
21480 26846 26850 28
21481 26851 26852 28
21482 26851 26853 28
21483 26851 26854 28
21484 26851 26855 28
21485 26856 26857 28
21486 26856 26858 28
21487 26856 26859 28
21488 26856 26860 28
21489 26861 26862 28
21490 26861 26863 28
21491 26861 26864 28
21492 26861 26865 28
21493 26866 26867 28
21494 26866 26868 28
21495 26866 26869 28
21496 26866 26870 28
21497 26871 26872 28
21498 26871 26873 28
21499 26871 26874 28
21500 26871 26875 28
21501 26876 26877 28
21502 26876 26878 28
21503 26876 26879 28
21504 26876 26880 28
21505 26881 26882 28
21506 26881 26883 28
21507 26881 26884 28
21508 26881 26885 28
21509 26886 26887 28
21510 26886 26888 28
21511 26886 26889 28
21512 26886 26890 28
21513 26891 26892 28
21514 26891 26893 28
21515 26891 26894 28
21516 26891 26895 28
21517 26896 26897 28
21518 26896 26898 28
21519 26896 26899 28
21520 26896 26900 28
21521 26901 26902 28
21522 26901 26903 28
21523 26901 26904 28
21524 26901 26905 28
21525 26906 26907 28
21526 26906 26908 28
21527 26906 26909 28
21528 26906 26910 28
21529 26911 26912 28
21530 26911 26913 28
21531 26911 26914 28
21532 26911 26915 28
21533 26916 26917 28
21534 26916 26918 28
21535 26916 26919 28
21536 26916 26920 28
21537 26921 26922 28
21538 26921 26923 28
21539 26921 26924 28
21540 26921 26925 28
21541 26926 26927 28
21542 26926 26928 28
21543 26926 26929 28
21544 26926 26930 28
21545 26931 26932 28
21546 26931 26933 28
21547 26931 26934 28
21548 26931 26935 28
21549 26936 26937 28
21550 26936 26938 28
21551 26936 26939 28
21552 26936 26940 28
21553 26941 26942 28
21554 26941 26943 28
21555 26941 26944 28
21556 26941 26945 28
21557 26946 26947 28
21558 26946 26948 28
21559 26946 26949 28
21560 26946 26950 28
21561 26951 26952 28
21562 26951 26953 28
21563 26951 26954 28
21564 26951 26955 28
21565 26956 26957 28
21566 26956 26958 28
21567 26956 26959 28
21568 26956 26960 28
21569 26961 26962 28
21570 26961 26963 28
21571 26961 26964 28
21572 26961 26965 28
21573 26966 26967 28
21574 26966 26968 28
21575 26966 26969 28
21576 26966 26970 28
21577 26971 26972 28
21578 26971 26973 28
21579 26971 26974 28
21580 26971 26975 28
21581 26976 26977 28
21582 26976 26978 28
21583 26976 26979 28
21584 26976 26980 28
21585 26981 26982 28
21586 26981 26983 28
21587 26981 26984 28
21588 26981 26985 28
21589 26986 26987 28
21590 26986 26988 28
21591 26986 26989 28
21592 26986 26990 28
21593 26991 26992 28
21594 26991 26993 28
21595 26991 26994 28
21596 26991 26995 28
21597 26996 26997 28
21598 26996 26998 28
21599 26996 26999 28
21600 26996 27000 28
21601 27001 27002 28
21602 27001 27003 28
21603 27001 27004 28
21604 27001 27005 28
21605 27006 27007 28
21606 27006 27008 28
21607 27006 27009 28
21608 27006 27010 28
21609 27011 27012 28
21610 27011 27013 28
21611 27011 27014 28
21612 27011 27015 28
21613 27016 27017 28
21614 27016 27018 28
21615 27016 27019 28
21616 27016 27020 28
21617 27021 27022 28
21618 27021 27023 28
21619 27021 27024 28
21620 27021 27025 28
21621 27026 27027 28
21622 27026 27028 28
21623 27026 27029 28
21624 27026 27030 28
21625 27031 27032 28
21626 27031 27033 28
21627 27031 27034 28
21628 27031 27035 28
21629 27036 27037 28
21630 27036 27038 28
21631 27036 27039 28
21632 27036 27040 28
21633 27041 27042 28
21634 27041 27043 28
21635 27041 27044 28
21636 27041 27045 28
21637 27046 27047 28
21638 27046 27048 28
21639 27046 27049 28
21640 27046 27050 28
21641 27051 27052 28
21642 27051 27053 28
21643 27051 27054 28
21644 27051 27055 28
21645 27056 27057 28
21646 27056 27058 28
21647 27056 27059 28
21648 27056 27060 28
21649 27061 27062 28
21650 27061 27063 28
21651 27061 27064 28
21652 27061 27065 28
21653 27066 27067 28
21654 27066 27068 28
21655 27066 27069 28
21656 27066 27070 28
21657 27071 27072 28
21658 27071 27073 28
21659 27071 27074 28
21660 27071 27075 28
21661 27076 27077 28
21662 27076 27078 28
21663 27076 27079 28
21664 27076 27080 28
21665 27081 27082 28
21666 27081 27083 28
21667 27081 27084 28
21668 27081 27085 28
21669 27086 27087 28
21670 27086 27088 28
21671 27086 27089 28
21672 27086 27090 28
21673 27091 27092 28
21674 27091 27093 28
21675 27091 27094 28
21676 27091 27095 28
21677 27096 27097 28
21678 27096 27098 28
21679 27096 27099 28
21680 27096 27100 28
21681 27101 27102 28
21682 27101 27103 28
21683 27101 27104 28
21684 27101 27105 28
21685 27106 27107 28
21686 27106 27108 28
21687 27106 27109 28
21688 27106 27110 28
21689 27111 27112 28
21690 27111 27113 28
21691 27111 27114 28
21692 27111 27115 28
21693 27116 27117 28
21694 27116 27118 28
21695 27116 27119 28
21696 27116 27120 28
21697 27121 27122 28
21698 27121 27123 28
21699 27121 27124 28
21700 27121 27125 28
21701 27126 27127 28
21702 27126 27128 28
21703 27126 27129 28
21704 27126 27130 28
21705 27131 27132 28
21706 27131 27133 28
21707 27131 27134 28
21708 27131 27135 28
21709 27136 27137 28
21710 27136 27138 28
21711 27136 27139 28
21712 27136 27140 28
21713 27141 27142 28
21714 27141 27143 28
21715 27141 27144 28
21716 27141 27145 28
21717 27146 27147 28
21718 27146 27148 28
21719 27146 27149 28
21720 27146 27150 28
21721 27151 27152 28
21722 27151 27153 28
21723 27151 27154 28
21724 27151 27155 28
21725 27156 27157 28
21726 27156 27158 28
21727 27156 27159 28
21728 27156 27160 28
21729 27161 27162 28
21730 27161 27163 28
21731 27161 27164 28
21732 27161 27165 28
21733 27166 27167 28
21734 27166 27168 28
21735 27166 27169 28
21736 27166 27170 28
21737 27171 27172 28
21738 27171 27173 28
21739 27171 27174 28
21740 27171 27175 28
21741 27176 27177 28
21742 27176 27178 28
21743 27176 27179 28
21744 27176 27180 28
21745 27181 27182 28
21746 27181 27183 28
21747 27181 27184 28
21748 27181 27185 28
21749 27186 27187 28
21750 27186 27188 28
21751 27186 27189 28
21752 27186 27190 28
21753 27191 27192 28
21754 27191 27193 28
21755 27191 27194 28
21756 27191 27195 28
21757 27196 27197 28
21758 27196 27198 28
21759 27196 27199 28
21760 27196 27200 28
21761 27201 27202 28
21762 27201 27203 28
21763 27201 27204 28
21764 27201 27205 28
21765 27206 27207 28
21766 27206 27208 28
21767 27206 27209 28
21768 27206 27210 28
21769 27211 27212 28
21770 27211 27213 28
21771 27211 27214 28
21772 27211 27215 28
21773 27216 27217 28
21774 27216 27218 28
21775 27216 27219 28
21776 27216 27220 28
21777 27221 27222 28
21778 27221 27223 28
21779 27221 27224 28
21780 27221 27225 28
21781 27226 27227 28
21782 27226 27228 28
21783 27226 27229 28
21784 27226 27230 28
21785 27231 27232 28
21786 27231 27233 28
21787 27231 27234 28
21788 27231 27235 28
21789 27236 27237 28
21790 27236 27238 28
21791 27236 27239 28
21792 27236 27240 28
21793 27241 27242 28
21794 27241 27243 28
21795 27241 27244 28
21796 27241 27245 28
21797 27246 27247 28
21798 27246 27248 28
21799 27246 27249 28
21800 27246 27250 28
21801 27251 27252 28
21802 27251 27253 28
21803 27251 27254 28
21804 27251 27255 28
21805 27256 27257 28
21806 27256 27258 28
21807 27256 27259 28
21808 27256 27260 28
21809 27261 27262 28
21810 27261 27263 28
21811 27261 27264 28
21812 27261 27265 28
21813 27266 27267 28
21814 27266 27268 28
21815 27266 27269 28
21816 27266 27270 28
21817 27271 27272 28
21818 27271 27273 28
21819 27271 27274 28
21820 27271 27275 28
21821 27276 27277 28
21822 27276 27278 28
21823 27276 27279 28
21824 27276 27280 28
21825 27281 27282 28
21826 27281 27283 28
21827 27281 27284 28
21828 27281 27285 28
21829 27286 27287 28
21830 27286 27288 28
21831 27286 27289 28
21832 27286 27290 28
21833 27291 27292 28
21834 27291 27293 28
21835 27291 27294 28
21836 27291 27295 28
21837 27296 27297 28
21838 27296 27298 28
21839 27296 27299 28
21840 27296 27300 28
21841 27301 27302 28
21842 27301 27303 28
21843 27301 27304 28
21844 27301 27305 28
21845 27306 27307 28
21846 27306 27308 28
21847 27306 27309 28
21848 27306 27310 28
21849 27311 27312 28
21850 27311 27313 28
21851 27311 27314 28
21852 27311 27315 28
21853 27316 27317 28
21854 27316 27318 28
21855 27316 27319 28
21856 27316 27320 28
21857 27321 27322 28
21858 27321 27323 28
21859 27321 27324 28
21860 27321 27325 28
21861 27326 27327 28
21862 27326 27328 28
21863 27326 27329 28
21864 27326 27330 28
21865 27331 27332 28
21866 27331 27333 28
21867 27331 27334 28
21868 27331 27335 28
21869 27336 27337 28
21870 27336 27338 28
21871 27336 27339 28
21872 27336 27340 28
21873 27341 27342 28
21874 27341 27343 28
21875 27341 27344 28
21876 27341 27345 28
21877 27346 27347 28
21878 27346 27348 28
21879 27346 27349 28
21880 27346 27350 28
21881 27351 27352 28
21882 27351 27353 28
21883 27351 27354 28
21884 27351 27355 28
21885 27356 27357 28
21886 27356 27358 28
21887 27356 27359 28
21888 27356 27360 28
21889 27361 27362 28
21890 27361 27363 28
21891 27361 27364 28
21892 27361 27365 28
21893 27366 27367 28
21894 27366 27368 28
21895 27366 27369 28
21896 27366 27370 28
21897 27371 27372 28
21898 27371 27373 28
21899 27371 27374 28
21900 27371 27375 28
21901 27376 27377 28
21902 27376 27378 28
21903 27376 27379 28
21904 27376 27380 28
21905 27381 27382 28
21906 27381 27383 28
21907 27381 27384 28
21908 27381 27385 28
21909 27386 27387 28
21910 27386 27388 28
21911 27386 27389 28
21912 27386 27390 28
21913 27391 27392 28
21914 27391 27393 28
21915 27391 27394 28
21916 27391 27395 28
21917 27396 27397 28
21918 27396 27398 28
21919 27396 27399 28
21920 27396 27400 28
21921 27401 27402 28
21922 27401 27403 28
21923 27401 27404 28
21924 27401 27405 28
21925 27406 27407 28
21926 27406 27408 28
21927 27406 27409 28
21928 27406 27410 28
21929 27411 27412 28
21930 27411 27413 28
21931 27411 27414 28
21932 27411 27415 28
21933 27416 27417 28
21934 27416 27418 28
21935 27416 27419 28
21936 27416 27420 28
21937 27421 27422 28
21938 27421 27423 28
21939 27421 27424 28
21940 27421 27425 28
21941 27426 27427 28
21942 27426 27428 28
21943 27426 27429 28
21944 27426 27430 28
21945 27431 27432 28
21946 27431 27433 28
21947 27431 27434 28
21948 27431 27435 28
21949 27436 27437 28
21950 27436 27438 28
21951 27436 27439 28
21952 27436 27440 28
21953 27441 27442 28
21954 27441 27443 28
21955 27441 27444 28
21956 27441 27445 28
21957 27446 27447 28
21958 27446 27448 28
21959 27446 27449 28
21960 27446 27450 28
21961 27451 27452 28
21962 27451 27453 28
21963 27451 27454 28
21964 27451 27455 28
21965 27456 27457 28
21966 27456 27458 28
21967 27456 27459 28
21968 27456 27460 28
21969 27461 27462 28
21970 27461 27463 28
21971 27461 27464 28
21972 27461 27465 28
21973 27466 27467 28
21974 27466 27468 28
21975 27466 27469 28
21976 27466 27470 28
21977 27471 27472 28
21978 27471 27473 28
21979 27471 27474 28
21980 27471 27475 28
21981 27476 27477 28
21982 27476 27478 28
21983 27476 27479 28
21984 27476 27480 28
21985 27481 27482 28
21986 27481 27483 28
21987 27481 27484 28
21988 27481 27485 28
21989 27486 27487 28
21990 27486 27488 28
21991 27486 27489 28
21992 27486 27490 28
21993 27491 27492 28
21994 27491 27493 28
21995 27491 27494 28
21996 27491 27495 28
21997 27496 27497 28
21998 27496 27498 28
21999 27496 27499 28
22000 27496 27500 28
22001 27501 27502 28
22002 27501 27503 28
22003 27501 27504 28
22004 27501 27505 28
22005 27506 27507 28
22006 27506 27508 28
22007 27506 27509 28
22008 27506 27510 28
22009 27511 27512 28
22010 27511 27513 28
22011 27511 27514 28
22012 27511 27515 28
22013 27516 27517 28
22014 27516 27518 28
22015 27516 27519 28
22016 27516 27520 28
22017 27521 27522 28
22018 27521 27523 28
22019 27521 27524 28
22020 27521 27525 28
22021 27526 27527 28
22022 27526 27528 28
22023 27526 27529 28
22024 27526 27530 28
22025 27531 27532 28
22026 27531 27533 28
22027 27531 27534 28
22028 27531 27535 28
22029 27536 27537 28
22030 27536 27538 28
22031 27536 27539 28
22032 27536 27540 28
22033 27541 27542 28
22034 27541 27543 28
22035 27541 27544 28
22036 27541 27545 28
22037 27546 27547 28
22038 27546 27548 28
22039 27546 27549 28
22040 27546 27550 28
22041 27551 27552 28
22042 27551 27553 28
22043 27551 27554 28
22044 27551 27555 28
22045 27556 27557 28
22046 27556 27558 28
22047 27556 27559 28
22048 27556 27560 28
22049 27561 27562 28
22050 27561 27563 28
22051 27561 27564 28
22052 27561 27565 28
22053 27566 27567 28
22054 27566 27568 28
22055 27566 27569 28
22056 27566 27570 28
22057 27571 27572 28
22058 27571 27573 28
22059 27571 27574 28
22060 27571 27575 28
22061 27576 27577 28
22062 27576 27578 28
22063 27576 27579 28
22064 27576 27580 28
22065 27581 27582 28
22066 27581 27583 28
22067 27581 27584 28
22068 27581 27585 28
22069 27586 27587 28
22070 27586 27588 28
22071 27586 27589 28
22072 27586 27590 28
22073 27591 27592 28
22074 27591 27593 28
22075 27591 27594 28
22076 27591 27595 28
22077 27596 27597 28
22078 27596 27598 28
22079 27596 27599 28
22080 27596 27600 28
22081 27601 27602 28
22082 27601 27603 28
22083 27601 27604 28
22084 27601 27605 28
22085 27606 27607 28
22086 27606 27608 28
22087 27606 27609 28
22088 27606 27610 28
22089 27611 27612 28
22090 27611 27613 28
22091 27611 27614 28
22092 27611 27615 28
22093 27616 27617 28
22094 27616 27618 28
22095 27616 27619 28
22096 27616 27620 28
22097 27621 27622 28
22098 27621 27623 28
22099 27621 27624 28
22100 27621 27625 28
22101 27626 27627 28
22102 27626 27628 28
22103 27626 27629 28
22104 27626 27630 28
22105 27631 27632 28
22106 27631 27633 28
22107 27631 27634 28
22108 27631 27635 28
22109 27636 27637 28
22110 27636 27638 28
22111 27636 27639 28
22112 27636 27640 28
22113 27641 27642 28
22114 27641 27643 28
22115 27641 27644 28
22116 27641 27645 28
22117 27646 27647 28
22118 27646 27648 28
22119 27646 27649 28
22120 27646 27650 28
22121 27651 27652 28
22122 27651 27653 28
22123 27651 27654 28
22124 27651 27655 28
22125 27656 27657 28
22126 27656 27658 28
22127 27656 27659 28
22128 27656 27660 28
22129 27661 27662 28
22130 27661 27663 28
22131 27661 27664 28
22132 27661 27665 28
22133 27666 27667 28
22134 27666 27668 28
22135 27666 27669 28
22136 27666 27670 28
22137 27671 27672 28
22138 27671 27673 28
22139 27671 27674 28
22140 27671 27675 28
22141 27676 27677 28
22142 27676 27678 28
22143 27676 27679 28
22144 27676 27680 28
22145 27681 27682 28
22146 27681 27683 28
22147 27681 27684 28
22148 27681 27685 28
22149 27686 27687 28
22150 27686 27688 28
22151 27686 27689 28
22152 27686 27690 28
22153 27691 27692 28
22154 27691 27693 28
22155 27691 27694 28
22156 27691 27695 28
22157 27696 27697 28
22158 27696 27698 28
22159 27696 27699 28
22160 27696 27700 28
22161 27701 27702 28
22162 27701 27703 28
22163 27701 27704 28
22164 27701 27705 28
22165 27706 27707 28
22166 27706 27708 28
22167 27706 27709 28
22168 27706 27710 28
22169 27711 27712 28
22170 27711 27713 28
22171 27711 27714 28
22172 27711 27715 28
22173 27716 27717 28
22174 27716 27718 28
22175 27716 27719 28
22176 27716 27720 28
22177 27721 27722 28
22178 27721 27723 28
22179 27721 27724 28
22180 27721 27725 28
22181 27726 27727 28
22182 27726 27728 28
22183 27726 27729 28
22184 27726 27730 28
22185 27731 27732 28
22186 27731 27733 28
22187 27731 27734 28
22188 27731 27735 28
22189 27736 27737 28
22190 27736 27738 28
22191 27736 27739 28
22192 27736 27740 28
22193 27741 27742 28
22194 27741 27743 28
22195 27741 27744 28
22196 27741 27745 28
22197 27746 27747 28
22198 27746 27748 28
22199 27746 27749 28
22200 27746 27750 28
22201 27751 27752 28
22202 27751 27753 28
22203 27751 27754 28
22204 27751 27755 28
22205 27756 27757 28
22206 27756 27758 28
22207 27756 27759 28
22208 27756 27760 28
22209 27761 27762 28
22210 27761 27763 28
22211 27761 27764 28
22212 27761 27765 28
22213 27766 27767 28
22214 27766 27768 28
22215 27766 27769 28
22216 27766 27770 28
22217 27771 27772 28
22218 27771 27773 28
22219 27771 27774 28
22220 27771 27775 28
22221 27776 27777 28
22222 27776 27778 28
22223 27776 27779 28
22224 27776 27780 28
22225 27781 27782 28
22226 27781 27783 28
22227 27781 27784 28
22228 27781 27785 28
22229 27786 27787 28
22230 27786 27788 28
22231 27786 27789 28
22232 27786 27790 28
22233 27791 27792 28
22234 27791 27793 28
22235 27791 27794 28
22236 27791 27795 28
22237 27796 27797 28
22238 27796 27798 28
22239 27796 27799 28
22240 27796 27800 28
22241 27801 27802 28
22242 27801 27803 28
22243 27801 27804 28
22244 27801 27805 28
22245 27806 27807 28
22246 27806 27808 28
22247 27806 27809 28
22248 27806 27810 28
22249 27811 27812 28
22250 27811 27813 28
22251 27811 27814 28
22252 27811 27815 28
22253 27816 27817 28
22254 27816 27818 28
22255 27816 27819 28
22256 27816 27820 28
22257 27821 27822 28
22258 27821 27823 28
22259 27821 27824 28
22260 27821 27825 28
22261 27826 27827 28
22262 27826 27828 28
22263 27826 27829 28
22264 27826 27830 28
22265 27831 27832 28
22266 27831 27833 28
22267 27831 27834 28
22268 27831 27835 28
22269 27836 27837 28
22270 27836 27838 28
22271 27836 27839 28
22272 27836 27840 28
22273 27841 27842 28
22274 27841 27843 28
22275 27841 27844 28
22276 27841 27845 28
22277 27846 27847 28
22278 27846 27848 28
22279 27846 27849 28
22280 27846 27850 28
22281 27851 27852 28
22282 27851 27853 28
22283 27851 27854 28
22284 27851 27855 28
22285 27856 27857 28
22286 27856 27858 28
22287 27856 27859 28
22288 27856 27860 28
22289 27861 27862 28
22290 27861 27863 28
22291 27861 27864 28
22292 27861 27865 28
22293 27866 27867 28
22294 27866 27868 28
22295 27866 27869 28
22296 27866 27870 28
22297 27871 27872 28
22298 27871 27873 28
22299 27871 27874 28
22300 27871 27875 28
22301 27876 27877 28
22302 27876 27878 28
22303 27876 27879 28
22304 27876 27880 28
22305 27881 27882 28
22306 27881 27883 28
22307 27881 27884 28
22308 27881 27885 28
22309 27886 27887 28
22310 27886 27888 28
22311 27886 27889 28
22312 27886 27890 28
22313 27891 27892 28
22314 27891 27893 28
22315 27891 27894 28
22316 27891 27895 28
22317 27896 27897 28
22318 27896 27898 28
22319 27896 27899 28
22320 27896 27900 28
22321 27901 27902 28
22322 27901 27903 28
22323 27901 27904 28
22324 27901 27905 28
22325 27906 27907 28
22326 27906 27908 28
22327 27906 27909 28
22328 27906 27910 28
22329 27911 27912 28
22330 27911 27913 28
22331 27911 27914 28
22332 27911 27915 28
22333 27916 27917 28
22334 27916 27918 28
22335 27916 27919 28
22336 27916 27920 28
22337 27921 27922 28
22338 27921 27923 28
22339 27921 27924 28
22340 27921 27925 28
22341 27926 27927 28
22342 27926 27928 28
22343 27926 27929 28
22344 27926 27930 28
22345 27931 27932 28
22346 27931 27933 28
22347 27931 27934 28
22348 27931 27935 28
22349 27936 27937 28
22350 27936 27938 28
22351 27936 27939 28
22352 27936 27940 28
22353 27941 27942 28
22354 27941 27943 28
22355 27941 27944 28
22356 27941 27945 28
22357 27946 27947 28
22358 27946 27948 28
22359 27946 27949 28
22360 27946 27950 28
22361 27951 27952 28
22362 27951 27953 28
22363 27951 27954 28
22364 27951 27955 28
22365 27956 27957 28
22366 27956 27958 28
22367 27956 27959 28
22368 27956 27960 28
22369 27961 27962 28
22370 27961 27963 28
22371 27961 27964 28
22372 27961 27965 28
22373 27966 27967 28
22374 27966 27968 28
22375 27966 27969 28
22376 27966 27970 28
22377 27971 27972 28
22378 27971 27973 28
22379 27971 27974 28
22380 27971 27975 28
22381 27976 27977 28
22382 27976 27978 28
22383 27976 27979 28
22384 27976 27980 28
22385 27981 27982 28
22386 27981 27983 28
22387 27981 27984 28
22388 27981 27985 28
22389 27986 27987 28
22390 27986 27988 28
22391 27986 27989 28
22392 27986 27990 28
22393 27991 27992 28
22394 27991 27993 28
22395 27991 27994 28
22396 27991 27995 28
22397 27996 27997 28
22398 27996 27998 28
22399 27996 27999 28
22400 27996 28000 28
22401 28001 28002 28
22402 28001 28003 28
22403 28001 28004 28
22404 28001 28005 28
22405 28006 28007 28
22406 28006 28008 28
22407 28006 28009 28
22408 28006 28010 28
22409 28011 28012 28
22410 28011 28013 28
22411 28011 28014 28
22412 28011 28015 28
22413 28016 28017 28
22414 28016 28018 28
22415 28016 28019 28
22416 28016 28020 28
22417 28021 28022 28
22418 28021 28023 28
22419 28021 28024 28
22420 28021 28025 28
22421 28026 28027 28
22422 28026 28028 28
22423 28026 28029 28
22424 28026 28030 28
22425 28031 28032 28
22426 28031 28033 28
22427 28031 28034 28
22428 28031 28035 28
22429 28036 28037 28
22430 28036 28038 28
22431 28036 28039 28
22432 28036 28040 28
22433 28041 28042 28
22434 28041 28043 28
22435 28041 28044 28
22436 28041 28045 28
22437 28046 28047 28
22438 28046 28048 28
22439 28046 28049 28
22440 28046 28050 28
22441 28051 28052 28
22442 28051 28053 28
22443 28051 28054 28
22444 28051 28055 28
22445 28056 28057 28
22446 28056 28058 28
22447 28056 28059 28
22448 28056 28060 28
22449 28061 28062 28
22450 28061 28063 28
22451 28061 28064 28
22452 28061 28065 28
22453 28066 28067 28
22454 28066 28068 28
22455 28066 28069 28
22456 28066 28070 28
22457 28071 28072 28
22458 28071 28073 28
22459 28071 28074 28
22460 28071 28075 28
22461 28076 28077 28
22462 28076 28078 28
22463 28076 28079 28
22464 28076 28080 28
22465 28081 28082 28
22466 28081 28083 28
22467 28081 28084 28
22468 28081 28085 28
22469 28086 28087 28
22470 28086 28088 28
22471 28086 28089 28
22472 28086 28090 28
22473 28091 28092 28
22474 28091 28093 28
22475 28091 28094 28
22476 28091 28095 28
22477 28096 28097 28
22478 28096 28098 28
22479 28096 28099 28
22480 28096 28100 28
22481 28101 28102 28
22482 28101 28103 28
22483 28101 28104 28
22484 28101 28105 28
22485 28106 28107 28
22486 28106 28108 28
22487 28106 28109 28
22488 28106 28110 28
22489 28111 28112 28
22490 28111 28113 28
22491 28111 28114 28
22492 28111 28115 28
22493 28116 28117 28
22494 28116 28118 28
22495 28116 28119 28
22496 28116 28120 28
22497 28121 28122 28
22498 28121 28123 28
22499 28121 28124 28
22500 28121 28125 28
22501 28126 28127 28
22502 28126 28128 28
22503 28126 28129 28
22504 28126 28130 28
22505 28131 28132 28
22506 28131 28133 28
22507 28131 28134 28
22508 28131 28135 28
22509 28136 28137 28
22510 28136 28138 28
22511 28136 28139 28
22512 28136 28140 28
22513 28141 28142 28
22514 28141 28143 28
22515 28141 28144 28
22516 28141 28145 28
22517 28146 28147 28
22518 28146 28148 28
22519 28146 28149 28
22520 28146 28150 28
22521 28151 28152 28
22522 28151 28153 28
22523 28151 28154 28
22524 28151 28155 28
22525 28156 28157 28
22526 28156 28158 28
22527 28156 28159 28
22528 28156 28160 28
22529 28161 28162 28
22530 28161 28163 28
22531 28161 28164 28
22532 28161 28165 28
22533 28166 28167 28
22534 28166 28168 28
22535 28166 28169 28
22536 28166 28170 28
22537 28171 28172 28
22538 28171 28173 28
22539 28171 28174 28
22540 28171 28175 28
22541 28176 28177 28
22542 28176 28178 28
22543 28176 28179 28
22544 28176 28180 28
22545 28181 28182 28
22546 28181 28183 28
22547 28181 28184 28
22548 28181 28185 28
22549 28186 28187 28
22550 28186 28188 28
22551 28186 28189 28
22552 28186 28190 28
22553 28191 28192 28
22554 28191 28193 28
22555 28191 28194 28
22556 28191 28195 28
22557 28196 28197 28
22558 28196 28198 28
22559 28196 28199 28
22560 28196 28200 28
22561 28201 28202 28
22562 28201 28203 28
22563 28201 28204 28
22564 28201 28205 28
22565 28206 28207 28
22566 28206 28208 28
22567 28206 28209 28
22568 28206 28210 28
22569 28211 28212 28
22570 28211 28213 28
22571 28211 28214 28
22572 28211 28215 28
22573 28216 28217 28
22574 28216 28218 28
22575 28216 28219 28
22576 28216 28220 28
22577 28221 28222 28
22578 28221 28223 28
22579 28221 28224 28
22580 28221 28225 28
22581 28226 28227 28
22582 28226 28228 28
22583 28226 28229 28
22584 28226 28230 28
22585 28231 28232 28
22586 28231 28233 28
22587 28231 28234 28
22588 28231 28235 28
22589 28236 28237 28
22590 28236 28238 28
22591 28236 28239 28
22592 28236 28240 28
22593 28241 28242 28
22594 28241 28243 28
22595 28241 28244 28
22596 28241 28245 28
22597 28246 28247 28
22598 28246 28248 28
22599 28246 28249 28
22600 28246 28250 28
22601 28251 28252 28
22602 28251 28253 28
22603 28251 28254 28
22604 28251 28255 28
22605 28256 28257 28
22606 28256 28258 28
22607 28256 28259 28
22608 28256 28260 28
22609 28261 28262 28
22610 28261 28263 28
22611 28261 28264 28
22612 28261 28265 28
22613 28266 28267 28
22614 28266 28268 28
22615 28266 28269 28
22616 28266 28270 28
22617 28271 28272 28
22618 28271 28273 28
22619 28271 28274 28
22620 28271 28275 28
22621 28276 28277 28
22622 28276 28278 28
22623 28276 28279 28
22624 28276 28280 28
22625 28281 28282 28
22626 28281 28283 28
22627 28281 28284 28
22628 28281 28285 28
22629 28286 28287 28
22630 28286 28288 28
22631 28286 28289 28
22632 28286 28290 28
22633 28291 28292 28
22634 28291 28293 28
22635 28291 28294 28
22636 28291 28295 28
22637 28296 28297 28
22638 28296 28298 28
22639 28296 28299 28
22640 28296 28300 28
22641 28301 28302 28
22642 28301 28303 28
22643 28301 28304 28
22644 28301 28305 28
22645 28306 28307 28
22646 28306 28308 28
22647 28306 28309 28
22648 28306 28310 28
22649 28311 28312 28
22650 28311 28313 28
22651 28311 28314 28
22652 28311 28315 28
22653 28316 28317 28
22654 28316 28318 28
22655 28316 28319 28
22656 28316 28320 28
22657 28321 28322 28
22658 28321 28323 28
22659 28321 28324 28
22660 28321 28325 28
22661 28326 28327 28
22662 28326 28328 28
22663 28326 28329 28
22664 28326 28330 28
22665 28331 28332 28
22666 28331 28333 28
22667 28331 28334 28
22668 28331 28335 28
22669 28336 28337 28
22670 28336 28338 28
22671 28336 28339 28
22672 28336 28340 28
22673 28341 28342 28
22674 28341 28343 28
22675 28341 28344 28
22676 28341 28345 28
22677 28346 28347 28
22678 28346 28348 28
22679 28346 28349 28
22680 28346 28350 28
22681 28351 28352 28
22682 28351 28353 28
22683 28351 28354 28
22684 28351 28355 28
22685 28356 28357 28
22686 28356 28358 28
22687 28356 28359 28
22688 28356 28360 28
22689 28361 28362 28
22690 28361 28363 28
22691 28361 28364 28
22692 28361 28365 28
22693 28366 28367 28
22694 28366 28368 28
22695 28366 28369 28
22696 28366 28370 28
22697 28371 28372 28
22698 28371 28373 28
22699 28371 28374 28
22700 28371 28375 28
22701 28376 28377 28
22702 28376 28378 28
22703 28376 28379 28
22704 28376 28380 28
22705 28381 28382 28
22706 28381 28383 28
22707 28381 28384 28
22708 28381 28385 28
22709 28386 28387 28
22710 28386 28388 28
22711 28386 28389 28
22712 28386 28390 28
22713 28391 28392 28
22714 28391 28393 28
22715 28391 28394 28
22716 28391 28395 28
22717 28396 28397 28
22718 28396 28398 28
22719 28396 28399 28
22720 28396 28400 28
22721 28401 28402 28
22722 28401 28403 28
22723 28401 28404 28
22724 28401 28405 28
22725 28406 28407 28
22726 28406 28408 28
22727 28406 28409 28
22728 28406 28410 28
22729 28411 28412 28
22730 28411 28413 28
22731 28411 28414 28
22732 28411 28415 28
22733 28416 28417 28
22734 28416 28418 28
22735 28416 28419 28
22736 28416 28420 28
22737 28421 28422 28
22738 28421 28423 28
22739 28421 28424 28
22740 28421 28425 28
22741 28426 28427 28
22742 28426 28428 28
22743 28426 28429 28
22744 28426 28430 28
22745 28431 28432 28
22746 28431 28433 28
22747 28431 28434 28
22748 28431 28435 28
22749 28436 28437 28
22750 28436 28438 28
22751 28436 28439 28
22752 28436 28440 28
22753 28441 28442 28
22754 28441 28443 28
22755 28441 28444 28
22756 28441 28445 28
22757 28446 28447 28
22758 28446 28448 28
22759 28446 28449 28
22760 28446 28450 28
22761 28451 28452 28
22762 28451 28453 28
22763 28451 28454 28
22764 28451 28455 28
22765 28456 28457 28
22766 28456 28458 28
22767 28456 28459 28
22768 28456 28460 28
22769 28461 28462 28
22770 28461 28463 28
22771 28461 28464 28
22772 28461 28465 28
22773 28466 28467 28
22774 28466 28468 28
22775 28466 28469 28
22776 28466 28470 28
22777 28471 28472 28
22778 28471 28473 28
22779 28471 28474 28
22780 28471 28475 28
22781 28476 28477 28
22782 28476 28478 28
22783 28476 28479 28
22784 28476 28480 28
22785 28481 28482 28
22786 28481 28483 28
22787 28481 28484 28
22788 28481 28485 28
22789 28486 28487 28
22790 28486 28488 28
22791 28486 28489 28
22792 28486 28490 28
22793 28491 28492 28
22794 28491 28493 28
22795 28491 28494 28
22796 28491 28495 28
22797 28496 28497 28
22798 28496 28498 28
22799 28496 28499 28
22800 28496 28500 28
22801 28501 28502 28
22802 28501 28503 28
22803 28501 28504 28
22804 28501 28505 28
22805 28506 28507 28
22806 28506 28508 28
22807 28506 28509 28
22808 28506 28510 28
22809 28511 28512 28
22810 28511 28513 28
22811 28511 28514 28
22812 28511 28515 28
22813 28516 28517 28
22814 28516 28518 28
22815 28516 28519 28
22816 28516 28520 28
22817 28521 28522 28
22818 28521 28523 28
22819 28521 28524 28
22820 28521 28525 28
22821 28526 28527 28
22822 28526 28528 28
22823 28526 28529 28
22824 28526 28530 28
22825 28531 28532 28
22826 28531 28533 28
22827 28531 28534 28
22828 28531 28535 28
22829 28536 28537 28
22830 28536 28538 28
22831 28536 28539 28
22832 28536 28540 28
22833 28541 28542 28
22834 28541 28543 28
22835 28541 28544 28
22836 28541 28545 28
22837 28546 28547 28
22838 28546 28548 28
22839 28546 28549 28
22840 28546 28550 28
22841 28551 28552 28
22842 28551 28553 28
22843 28551 28554 28
22844 28551 28555 28
22845 28556 28557 28
22846 28556 28558 28
22847 28556 28559 28
22848 28556 28560 28
22849 28561 28562 28
22850 28561 28563 28
22851 28561 28564 28
22852 28561 28565 28
22853 28566 28567 28
22854 28566 28568 28
22855 28566 28569 28
22856 28566 28570 28
22857 28571 28572 28
22858 28571 28573 28
22859 28571 28574 28
22860 28571 28575 28
22861 28576 28577 28
22862 28576 28578 28
22863 28576 28579 28
22864 28576 28580 28
22865 28581 28582 28
22866 28581 28583 28
22867 28581 28584 28
22868 28581 28585 28
22869 28586 28587 28
22870 28586 28588 28
22871 28586 28589 28
22872 28586 28590 28
22873 28591 28592 28
22874 28591 28593 28
22875 28591 28594 28
22876 28591 28595 28
22877 28596 28597 28
22878 28596 28598 28
22879 28596 28599 28
22880 28596 28600 28
22881 28601 28602 28
22882 28601 28603 28
22883 28601 28604 28
22884 28601 28605 28
22885 28606 28607 28
22886 28606 28608 28
22887 28606 28609 28
22888 28606 28610 28
22889 28611 28612 28
22890 28611 28613 28
22891 28611 28614 28
22892 28611 28615 28
22893 28616 28617 28
22894 28616 28618 28
22895 28616 28619 28
22896 28616 28620 28
22897 28621 28622 28
22898 28621 28623 28
22899 28621 28624 28
22900 28621 28625 28
22901 28626 28627 28
22902 28626 28628 28
22903 28626 28629 28
22904 28626 28630 28
22905 28631 28632 28
22906 28631 28633 28
22907 28631 28634 28
22908 28631 28635 28
22909 28636 28637 28
22910 28636 28638 28
22911 28636 28639 28
22912 28636 28640 28
22913 28641 28642 28
22914 28641 28643 28
22915 28641 28644 28
22916 28641 28645 28
22917 28646 28647 28
22918 28646 28648 28
22919 28646 28649 28
22920 28646 28650 28
22921 28651 28652 28
22922 28651 28653 28
22923 28651 28654 28
22924 28651 28655 28
22925 28656 28657 28
22926 28656 28658 28
22927 28656 28659 28
22928 28656 28660 28
22929 28661 28662 28
22930 28661 28663 28
22931 28661 28664 28
22932 28661 28665 28
22933 28666 28667 28
22934 28666 28668 28
22935 28666 28669 28
22936 28666 28670 28
22937 28671 28672 28
22938 28671 28673 28
22939 28671 28674 28
22940 28671 28675 28
22941 28676 28677 28
22942 28676 28678 28
22943 28676 28679 28
22944 28676 28680 28
22945 28681 28682 28
22946 28681 28683 28
22947 28681 28684 28
22948 28681 28685 28
22949 28686 28687 28
22950 28686 28688 28
22951 28686 28689 28
22952 28686 28690 28
22953 28691 28692 28
22954 28691 28693 28
22955 28691 28694 28
22956 28691 28695 28
22957 28696 28697 28
22958 28696 28698 28
22959 28696 28699 28
22960 28696 28700 28
22961 28701 28702 28
22962 28701 28703 28
22963 28701 28704 28
22964 28701 28705 28
22965 28706 28707 28
22966 28706 28708 28
22967 28706 28709 28
22968 28706 28710 28
22969 28711 28712 28
22970 28711 28713 28
22971 28711 28714 28
22972 28711 28715 28
22973 28716 28717 28
22974 28716 28718 28
22975 28716 28719 28
22976 28716 28720 28
22977 28721 28722 28
22978 28721 28723 28
22979 28721 28724 28
22980 28721 28725 28
22981 28726 28727 28
22982 28726 28728 28
22983 28726 28729 28
22984 28726 28730 28
22985 28731 28732 28
22986 28731 28733 28
22987 28731 28734 28
22988 28731 28735 28
22989 28736 28737 28
22990 28736 28738 28
22991 28736 28739 28
22992 28736 28740 28
22993 28741 28742 28
22994 28741 28743 28
22995 28741 28744 28
22996 28741 28745 28
22997 28746 28747 28
22998 28746 28748 28
22999 28746 28749 28
23000 28746 28750 28
23001 28751 28752 28
23002 28751 28753 28
23003 28751 28754 28
23004 28751 28755 28
23005 28756 28757 28
23006 28756 28758 28
23007 28756 28759 28
23008 28756 28760 28
23009 28761 28762 28
23010 28761 28763 28
23011 28761 28764 28
23012 28761 28765 28
23013 28766 28767 28
23014 28766 28768 28
23015 28766 28769 28
23016 28766 28770 28
23017 28771 28772 28
23018 28771 28773 28
23019 28771 28774 28
23020 28771 28775 28
23021 28776 28777 28
23022 28776 28778 28
23023 28776 28779 28
23024 28776 28780 28
23025 28781 28782 28
23026 28781 28783 28
23027 28781 28784 28
23028 28781 28785 28
23029 28786 28787 28
23030 28786 28788 28
23031 28786 28789 28
23032 28786 28790 28
23033 28791 28792 28
23034 28791 28793 28
23035 28791 28794 28
23036 28791 28795 28
23037 28796 28797 28
23038 28796 28798 28
23039 28796 28799 28
23040 28796 28800 28
23041 28801 28802 28
23042 28801 28803 28
23043 28801 28804 28
23044 28801 28805 28
23045 28806 28807 28
23046 28806 28808 28
23047 28806 28809 28
23048 28806 28810 28
23049 28811 28812 28
23050 28811 28813 28
23051 28811 28814 28
23052 28811 28815 28
23053 28816 28817 28
23054 28816 28818 28
23055 28816 28819 28
23056 28816 28820 28
23057 28821 28822 28
23058 28821 28823 28
23059 28821 28824 28
23060 28821 28825 28
23061 28826 28827 28
23062 28826 28828 28
23063 28826 28829 28
23064 28826 28830 28
23065 28831 28832 28
23066 28831 28833 28
23067 28831 28834 28
23068 28831 28835 28
23069 28836 28837 28
23070 28836 28838 28
23071 28836 28839 28
23072 28836 28840 28
23073 28841 28842 28
23074 28841 28843 28
23075 28841 28844 28
23076 28841 28845 28
23077 28846 28847 28
23078 28846 28848 28
23079 28846 28849 28
23080 28846 28850 28
23081 28851 28852 28
23082 28851 28853 28
23083 28851 28854 28
23084 28851 28855 28
23085 28856 28857 28
23086 28856 28858 28
23087 28856 28859 28
23088 28856 28860 28
23089 28861 28862 28
23090 28861 28863 28
23091 28861 28864 28
23092 28861 28865 28
23093 28866 28867 28
23094 28866 28868 28
23095 28866 28869 28
23096 28866 28870 28
23097 28871 28872 28
23098 28871 28873 28
23099 28871 28874 28
23100 28871 28875 28
23101 28876 28877 28
23102 28876 28878 28
23103 28876 28879 28
23104 28876 28880 28
23105 28881 28882 28
23106 28881 28883 28
23107 28881 28884 28
23108 28881 28885 28
23109 28886 28887 28
23110 28886 28888 28
23111 28886 28889 28
23112 28886 28890 28
23113 28891 28892 28
23114 28891 28893 28
23115 28891 28894 28
23116 28891 28895 28
23117 28896 28897 28
23118 28896 28898 28
23119 28896 28899 28
23120 28896 28900 28
23121 28901 28902 28
23122 28901 28903 28
23123 28901 28904 28
23124 28901 28905 28
23125 28906 28907 28
23126 28906 28908 28
23127 28906 28909 28
23128 28906 28910 28
23129 28911 28912 28
23130 28911 28913 28
23131 28911 28914 28
23132 28911 28915 28
23133 28916 28917 28
23134 28916 28918 28
23135 28916 28919 28
23136 28916 28920 28
23137 28921 28922 28
23138 28921 28923 28
23139 28921 28924 28
23140 28921 28925 28
23141 28926 28927 28
23142 28926 28928 28
23143 28926 28929 28
23144 28926 28930 28
23145 28931 28932 28
23146 28931 28933 28
23147 28931 28934 28
23148 28931 28935 28
23149 28936 28937 28
23150 28936 28938 28
23151 28936 28939 28
23152 28936 28940 28
23153 28941 28942 28
23154 28941 28943 28
23155 28941 28944 28
23156 28941 28945 28
23157 28946 28947 28
23158 28946 28948 28
23159 28946 28949 28
23160 28946 28950 28
23161 28951 28952 28
23162 28951 28953 28
23163 28951 28954 28
23164 28951 28955 28
23165 28956 28957 28
23166 28956 28958 28
23167 28956 28959 28
23168 28956 28960 28
23169 28961 28962 28
23170 28961 28963 28
23171 28961 28964 28
23172 28961 28965 28
23173 28966 28967 28
23174 28966 28968 28
23175 28966 28969 28
23176 28966 28970 28
23177 28971 28972 28
23178 28971 28973 28
23179 28971 28974 28
23180 28971 28975 28
23181 28976 28977 28
23182 28976 28978 28
23183 28976 28979 28
23184 28976 28980 28
23185 28981 28982 28
23186 28981 28983 28
23187 28981 28984 28
23188 28981 28985 28
23189 28986 28987 28
23190 28986 28988 28
23191 28986 28989 28
23192 28986 28990 28
23193 28991 28992 28
23194 28991 28993 28
23195 28991 28994 28
23196 28991 28995 28
23197 28996 28997 28
23198 28996 28998 28
23199 28996 28999 28
23200 28996 29000 28
23201 29001 29002 28
23202 29001 29003 28
23203 29001 29004 28
23204 29001 29005 28
23205 29006 29007 28
23206 29006 29008 28
23207 29006 29009 28
23208 29006 29010 28
23209 29011 29012 28
23210 29011 29013 28
23211 29011 29014 28
23212 29011 29015 28
23213 29016 29017 28
23214 29016 29018 28
23215 29016 29019 28
23216 29016 29020 28
23217 29021 29022 28
23218 29021 29023 28
23219 29021 29024 28
23220 29021 29025 28
23221 29026 29027 28
23222 29026 29028 28
23223 29026 29029 28
23224 29026 29030 28
23225 29031 29032 28
23226 29031 29033 28
23227 29031 29034 28
23228 29031 29035 28
23229 29036 29037 28
23230 29036 29038 28
23231 29036 29039 28
23232 29036 29040 28
23233 29041 29042 28
23234 29041 29043 28
23235 29041 29044 28
23236 29041 29045 28
23237 29046 29047 28
23238 29046 29048 28
23239 29046 29049 28
23240 29046 29050 28
23241 29051 29052 28
23242 29051 29053 28
23243 29051 29054 28
23244 29051 29055 28
23245 29056 29057 28
23246 29056 29058 28
23247 29056 29059 28
23248 29056 29060 28
23249 29061 29062 28
23250 29061 29063 28
23251 29061 29064 28
23252 29061 29065 28
23253 29066 29067 28
23254 29066 29068 28
23255 29066 29069 28
23256 29066 29070 28
23257 29071 29072 28
23258 29071 29073 28
23259 29071 29074 28
23260 29071 29075 28
23261 29076 29077 28
23262 29076 29078 28
23263 29076 29079 28
23264 29076 29080 28
23265 29081 29082 28
23266 29081 29083 28
23267 29081 29084 28
23268 29081 29085 28
23269 29086 29087 28
23270 29086 29088 28
23271 29086 29089 28
23272 29086 29090 28
23273 29091 29092 28
23274 29091 29093 28
23275 29091 29094 28
23276 29091 29095 28
23277 29096 29097 28
23278 29096 29098 28
23279 29096 29099 28
23280 29096 29100 28
23281 29101 29102 28
23282 29101 29103 28
23283 29101 29104 28
23284 29101 29105 28
23285 29106 29107 28
23286 29106 29108 28
23287 29106 29109 28
23288 29106 29110 28
23289 29111 29112 28
23290 29111 29113 28
23291 29111 29114 28
23292 29111 29115 28
23293 29116 29117 28
23294 29116 29118 28
23295 29116 29119 28
23296 29116 29120 28
23297 29121 29122 28
23298 29121 29123 28
23299 29121 29124 28
23300 29121 29125 28
23301 29126 29127 28
23302 29126 29128 28
23303 29126 29129 28
23304 29126 29130 28
23305 29131 29132 28
23306 29131 29133 28
23307 29131 29134 28
23308 29131 29135 28
23309 29136 29137 28
23310 29136 29138 28
23311 29136 29139 28
23312 29136 29140 28
23313 29141 29142 28
23314 29141 29143 28
23315 29141 29144 28
23316 29141 29145 28
23317 29146 29147 28
23318 29146 29148 28
23319 29146 29149 28
23320 29146 29150 28
23321 29151 29152 28
23322 29151 29153 28
23323 29151 29154 28
23324 29151 29155 28
23325 29156 29157 28
23326 29156 29158 28
23327 29156 29159 28
23328 29156 29160 28
23329 29161 29162 28
23330 29161 29163 28
23331 29161 29164 28
23332 29161 29165 28
23333 29166 29167 28
23334 29166 29168 28
23335 29166 29169 28
23336 29166 29170 28
23337 29171 29172 28
23338 29171 29173 28
23339 29171 29174 28
23340 29171 29175 28
23341 29176 29177 28
23342 29176 29178 28
23343 29176 29179 28
23344 29176 29180 28
23345 29181 29182 28
23346 29181 29183 28
23347 29181 29184 28
23348 29181 29185 28
23349 29186 29187 28
23350 29186 29188 28
23351 29186 29189 28
23352 29186 29190 28
23353 29191 29192 28
23354 29191 29193 28
23355 29191 29194 28
23356 29191 29195 28
23357 29196 29197 28
23358 29196 29198 28
23359 29196 29199 28
23360 29196 29200 28
23361 29201 29202 28
23362 29201 29203 28
23363 29201 29204 28
23364 29201 29205 28
23365 29206 29207 28
23366 29206 29208 28
23367 29206 29209 28
23368 29206 29210 28
23369 29211 29212 28
23370 29211 29213 28
23371 29211 29214 28
23372 29211 29215 28
23373 29216 29217 28
23374 29216 29218 28
23375 29216 29219 28
23376 29216 29220 28
23377 29221 29222 28
23378 29221 29223 28
23379 29221 29224 28
23380 29221 29225 28
23381 29226 29227 28
23382 29226 29228 28
23383 29226 29229 28
23384 29226 29230 28
23385 29231 29232 28
23386 29231 29233 28
23387 29231 29234 28
23388 29231 29235 28
23389 29236 29237 28
23390 29236 29238 28
23391 29236 29239 28
23392 29236 29240 28
23393 29241 29242 28
23394 29241 29243 28
23395 29241 29244 28
23396 29241 29245 28
23397 29246 29247 28
23398 29246 29248 28
23399 29246 29249 28
23400 29246 29250 28
23401 29251 29252 28
23402 29251 29253 28
23403 29251 29254 28
23404 29251 29255 28
23405 29256 29257 28
23406 29256 29258 28
23407 29256 29259 28
23408 29256 29260 28
23409 29261 29262 28
23410 29261 29263 28
23411 29261 29264 28
23412 29261 29265 28
23413 29266 29267 28
23414 29266 29268 28
23415 29266 29269 28
23416 29266 29270 28
23417 29271 29272 28
23418 29271 29273 28
23419 29271 29274 28
23420 29271 29275 28
23421 29276 29277 28
23422 29276 29278 28
23423 29276 29279 28
23424 29276 29280 28
23425 29281 29282 28
23426 29281 29283 28
23427 29281 29284 28
23428 29281 29285 28
23429 29286 29287 28
23430 29286 29288 28
23431 29286 29289 28
23432 29286 29290 28
23433 29291 29292 28
23434 29291 29293 28
23435 29291 29294 28
23436 29291 29295 28
23437 29296 29297 28
23438 29296 29298 28
23439 29296 29299 28
23440 29296 29300 28
23441 29301 29302 28
23442 29301 29303 28
23443 29301 29304 28
23444 29301 29305 28
23445 29306 29307 28
23446 29306 29308 28
23447 29306 29309 28
23448 29306 29310 28
23449 29311 29312 28
23450 29311 29313 28
23451 29311 29314 28
23452 29311 29315 28
23453 29316 29317 28
23454 29316 29318 28
23455 29316 29319 28
23456 29316 29320 28
23457 29321 29322 28
23458 29321 29323 28
23459 29321 29324 28
23460 29321 29325 28
23461 29326 29327 28
23462 29326 29328 28
23463 29326 29329 28
23464 29326 29330 28
23465 29331 29332 28
23466 29331 29333 28
23467 29331 29334 28
23468 29331 29335 28
23469 29336 29337 28
23470 29336 29338 28
23471 29336 29339 28
23472 29336 29340 28
23473 29341 29342 28
23474 29341 29343 28
23475 29341 29344 28
23476 29341 29345 28
23477 29346 29347 28
23478 29346 29348 28
23479 29346 29349 28
23480 29346 29350 28
23481 29351 29352 28
23482 29351 29353 28
23483 29351 29354 28
23484 29351 29355 28
23485 29356 29357 28
23486 29356 29358 28
23487 29356 29359 28
23488 29356 29360 28
23489 29361 29362 28
23490 29361 29363 28
23491 29361 29364 28
23492 29361 29365 28
23493 29366 29367 28
23494 29366 29368 28
23495 29366 29369 28
23496 29366 29370 28
23497 29371 29372 28
23498 29371 29373 28
23499 29371 29374 28
23500 29371 29375 28
23501 29376 29377 28
23502 29376 29378 28
23503 29376 29379 28
23504 29376 29380 28
23505 29381 29382 28
23506 29381 29383 28
23507 29381 29384 28
23508 29381 29385 28
23509 29386 29387 28
23510 29386 29388 28
23511 29386 29389 28
23512 29386 29390 28
23513 29391 29392 28
23514 29391 29393 28
23515 29391 29394 28
23516 29391 29395 28
23517 29396 29397 28
23518 29396 29398 28
23519 29396 29399 28
23520 29396 29400 28
23521 29401 29402 28
23522 29401 29403 28
23523 29401 29404 28
23524 29401 29405 28
23525 29406 29407 28
23526 29406 29408 28
23527 29406 29409 28
23528 29406 29410 28
23529 29411 29412 28
23530 29411 29413 28
23531 29411 29414 28
23532 29411 29415 28
23533 29416 29417 28
23534 29416 29418 28
23535 29416 29419 28
23536 29416 29420 28
23537 29421 29422 28
23538 29421 29423 28
23539 29421 29424 28
23540 29421 29425 28
23541 29426 29427 28
23542 29426 29428 28
23543 29426 29429 28
23544 29426 29430 28
23545 29431 29432 28
23546 29431 29433 28
23547 29431 29434 28
23548 29431 29435 28
23549 29436 29437 28
23550 29436 29438 28
23551 29436 29439 28
23552 29436 29440 28
23553 29441 29442 28
23554 29441 29443 28
23555 29441 29444 28
23556 29441 29445 28
23557 29446 29447 28
23558 29446 29448 28
23559 29446 29449 28
23560 29446 29450 28
23561 29451 29452 28
23562 29451 29453 28
23563 29451 29454 28
23564 29451 29455 28
23565 29456 29457 28
23566 29456 29458 28
23567 29456 29459 28
23568 29456 29460 28
23569 29461 29462 28
23570 29461 29463 28
23571 29461 29464 28
23572 29461 29465 28
23573 29466 29467 28
23574 29466 29468 28
23575 29466 29469 28
23576 29466 29470 28
23577 29471 29472 28
23578 29471 29473 28
23579 29471 29474 28
23580 29471 29475 28
23581 29476 29477 28
23582 29476 29478 28
23583 29476 29479 28
23584 29476 29480 28
23585 29481 29482 28
23586 29481 29483 28
23587 29481 29484 28
23588 29481 29485 28
23589 29486 29487 28
23590 29486 29488 28
23591 29486 29489 28
23592 29486 29490 28
23593 29491 29492 28
23594 29491 29493 28
23595 29491 29494 28
23596 29491 29495 28
23597 29496 29497 28
23598 29496 29498 28
23599 29496 29499 28
23600 29496 29500 28
23601 29501 29502 28
23602 29501 29503 28
23603 29501 29504 28
23604 29501 29505 28
23605 29506 29507 28
23606 29506 29508 28
23607 29506 29509 28
23608 29506 29510 28
23609 29511 29512 28
23610 29511 29513 28
23611 29511 29514 28
23612 29511 29515 28
23613 29516 29517 28
23614 29516 29518 28
23615 29516 29519 28
23616 29516 29520 28
23617 29521 29522 28
23618 29521 29523 28
23619 29521 29524 28
23620 29521 29525 28
23621 29526 29527 28
23622 29526 29528 28
23623 29526 29529 28
23624 29526 29530 28
23625 29531 29532 28
23626 29531 29533 28
23627 29531 29534 28
23628 29531 29535 28
23629 29536 29537 28
23630 29536 29538 28
23631 29536 29539 28
23632 29536 29540 28
23633 29541 29542 28
23634 29541 29543 28
23635 29541 29544 28
23636 29541 29545 28
23637 29546 29547 28
23638 29546 29548 28
23639 29546 29549 28
23640 29546 29550 28
23641 29551 29552 28
23642 29551 29553 28
23643 29551 29554 28
23644 29551 29555 28
23645 29556 29557 28
23646 29556 29558 28
23647 29556 29559 28
23648 29556 29560 28
23649 29561 29562 28
23650 29561 29563 28
23651 29561 29564 28
23652 29561 29565 28
23653 29566 29567 28
23654 29566 29568 28
23655 29566 29569 28
23656 29566 29570 28
23657 29571 29572 28
23658 29571 29573 28
23659 29571 29574 28
23660 29571 29575 28
23661 29576 29577 28
23662 29576 29578 28
23663 29576 29579 28
23664 29576 29580 28
23665 29581 29582 28
23666 29581 29583 28
23667 29581 29584 28
23668 29581 29585 28
23669 29586 29587 28
23670 29586 29588 28
23671 29586 29589 28
23672 29586 29590 28
23673 29591 29592 28
23674 29591 29593 28
23675 29591 29594 28
23676 29591 29595 28
23677 29596 29597 28
23678 29596 29598 28
23679 29596 29599 28
23680 29596 29600 28
23681 29601 29602 28
23682 29601 29603 28
23683 29601 29604 28
23684 29601 29605 28
23685 29606 29607 28
23686 29606 29608 28
23687 29606 29609 28
23688 29606 29610 28
23689 29611 29612 28
23690 29611 29613 28
23691 29611 29614 28
23692 29611 29615 28
23693 29616 29617 28
23694 29616 29618 28
23695 29616 29619 28
23696 29616 29620 28
23697 29621 29622 28
23698 29621 29623 28
23699 29621 29624 28
23700 29621 29625 28
23701 29626 29627 28
23702 29626 29628 28
23703 29626 29629 28
23704 29626 29630 28
23705 29631 29632 28
23706 29631 29633 28
23707 29631 29634 28
23708 29631 29635 28
23709 29636 29637 28
23710 29636 29638 28
23711 29636 29639 28
23712 29636 29640 28
23713 29641 29642 28
23714 29641 29643 28
23715 29641 29644 28
23716 29641 29645 28
23717 29646 29647 28
23718 29646 29648 28
23719 29646 29649 28
23720 29646 29650 28
23721 29651 29652 28
23722 29651 29653 28
23723 29651 29654 28
23724 29651 29655 28
23725 29656 29657 28
23726 29656 29658 28
23727 29656 29659 28
23728 29656 29660 28
23729 29661 29662 28
23730 29661 29663 28
23731 29661 29664 28
23732 29661 29665 28
23733 29666 29667 28
23734 29666 29668 28
23735 29666 29669 28
23736 29666 29670 28
23737 29671 29672 28
23738 29671 29673 28
23739 29671 29674 28
23740 29671 29675 28
23741 29676 29677 28
23742 29676 29678 28
23743 29676 29679 28
23744 29676 29680 28
23745 29681 29682 28
23746 29681 29683 28
23747 29681 29684 28
23748 29681 29685 28
23749 29686 29687 28
23750 29686 29688 28
23751 29686 29689 28
23752 29686 29690 28
23753 29691 29692 28
23754 29691 29693 28
23755 29691 29694 28
23756 29691 29695 28
23757 29696 29697 28
23758 29696 29698 28
23759 29696 29699 28
23760 29696 29700 28
23761 29701 29702 28
23762 29701 29703 28
23763 29701 29704 28
23764 29701 29705 28
23765 29706 29707 28
23766 29706 29708 28
23767 29706 29709 28
23768 29706 29710 28
23769 29711 29712 28
23770 29711 29713 28
23771 29711 29714 28
23772 29711 29715 28
23773 29716 29717 28
23774 29716 29718 28
23775 29716 29719 28
23776 29716 29720 28
23777 29721 29722 28
23778 29721 29723 28
23779 29721 29724 28
23780 29721 29725 28
23781 29726 29727 28
23782 29726 29728 28
23783 29726 29729 28
23784 29726 29730 28
23785 29731 29732 28
23786 29731 29733 28
23787 29731 29734 28
23788 29731 29735 28
23789 29736 29737 28
23790 29736 29738 28
23791 29736 29739 28
23792 29736 29740 28
23793 29741 29742 28
23794 29741 29743 28
23795 29741 29744 28
23796 29741 29745 28
23797 29746 29747 28
23798 29746 29748 28
23799 29746 29749 28
23800 29746 29750 28
23801 29751 29752 28
23802 29751 29753 28
23803 29751 29754 28
23804 29751 29755 28
23805 29756 29757 28
23806 29756 29758 28
23807 29756 29759 28
23808 29756 29760 28
23809 29761 29762 28
23810 29761 29763 28
23811 29761 29764 28
23812 29761 29765 28
23813 29766 29767 28
23814 29766 29768 28
23815 29766 29769 28
23816 29766 29770 28
23817 29771 29772 28
23818 29771 29773 28
23819 29771 29774 28
23820 29771 29775 28
23821 29776 29777 28
23822 29776 29778 28
23823 29776 29779 28
23824 29776 29780 28
23825 29781 29782 28
23826 29781 29783 28
23827 29781 29784 28
23828 29781 29785 28
23829 29786 29787 28
23830 29786 29788 28
23831 29786 29789 28
23832 29786 29790 28
23833 29791 29792 28
23834 29791 29793 28
23835 29791 29794 28
23836 29791 29795 28
23837 29796 29797 28
23838 29796 29798 28
23839 29796 29799 28
23840 29796 29800 28
23841 29801 29802 28
23842 29801 29803 28
23843 29801 29804 28
23844 29801 29805 28
23845 29806 29807 28
23846 29806 29808 28
23847 29806 29809 28
23848 29806 29810 28
23849 29811 29812 28
23850 29811 29813 28
23851 29811 29814 28
23852 29811 29815 28
23853 29816 29817 28
23854 29816 29818 28
23855 29816 29819 28
23856 29816 29820 28
23857 29821 29822 28
23858 29821 29823 28
23859 29821 29824 28
23860 29821 29825 28
23861 29826 29827 28
23862 29826 29828 28
23863 29826 29829 28
23864 29826 29830 28
23865 29831 29832 28
23866 29831 29833 28
23867 29831 29834 28
23868 29831 29835 28
23869 29836 29837 28
23870 29836 29838 28
23871 29836 29839 28
23872 29836 29840 28
23873 29841 29842 28
23874 29841 29843 28
23875 29841 29844 28
23876 29841 29845 28
23877 29846 29847 28
23878 29846 29848 28
23879 29846 29849 28
23880 29846 29850 28
23881 29851 29852 28
23882 29851 29853 28
23883 29851 29854 28
23884 29851 29855 28
23885 29856 29857 28
23886 29856 29858 28
23887 29856 29859 28
23888 29856 29860 28
23889 29861 29862 28
23890 29861 29863 28
23891 29861 29864 28
23892 29861 29865 28
23893 29866 29867 28
23894 29866 29868 28
23895 29866 29869 28
23896 29866 29870 28
23897 29871 29872 28
23898 29871 29873 28
23899 29871 29874 28
23900 29871 29875 28
23901 29876 29877 28
23902 29876 29878 28
23903 29876 29879 28
23904 29876 29880 28
23905 29881 29882 28
23906 29881 29883 28
23907 29881 29884 28
23908 29881 29885 28
23909 29886 29887 28
23910 29886 29888 28
23911 29886 29889 28
23912 29886 29890 28
23913 29891 29892 28
23914 29891 29893 28
23915 29891 29894 28
23916 29891 29895 28
23917 29896 29897 28
23918 29896 29898 28
23919 29896 29899 28
23920 29896 29900 28
23921 29901 29902 28
23922 29901 29903 28
23923 29901 29904 28
23924 29901 29905 28
23925 29906 29907 28
23926 29906 29908 28
23927 29906 29909 28
23928 29906 29910 28
23929 29911 29912 28
23930 29911 29913 28
23931 29911 29914 28
23932 29911 29915 28
23933 29916 29917 28
23934 29916 29918 28
23935 29916 29919 28
23936 29916 29920 28
23937 29921 29922 28
23938 29921 29923 28
23939 29921 29924 28
23940 29921 29925 28
23941 29926 29927 28
23942 29926 29928 28
23943 29926 29929 28
23944 29926 29930 28
23945 29931 29932 28
23946 29931 29933 28
23947 29931 29934 28
23948 29931 29935 28
23949 29936 29937 28
23950 29936 29938 28
23951 29936 29939 28
23952 29936 29940 28
23953 29941 29942 28
23954 29941 29943 28
23955 29941 29944 28
23956 29941 29945 28
23957 29946 29947 28
23958 29946 29948 28
23959 29946 29949 28
23960 29946 29950 28
23961 29951 29952 28
23962 29951 29953 28
23963 29951 29954 28
23964 29951 29955 28
23965 29956 29957 28
23966 29956 29958 28
23967 29956 29959 28
23968 29956 29960 28
23969 29961 29962 28
23970 29961 29963 28
23971 29961 29964 28
23972 29961 29965 28
23973 29966 29967 28
23974 29966 29968 28
23975 29966 29969 28
23976 29966 29970 28
23977 29971 29972 28
23978 29971 29973 28
23979 29971 29974 28
23980 29971 29975 28
23981 29976 29977 28
23982 29976 29978 28
23983 29976 29979 28
23984 29976 29980 28
23985 29981 29982 28
23986 29981 29983 28
23987 29981 29984 28
23988 29981 29985 28
23989 29986 29987 28
23990 29986 29988 28
23991 29986 29989 28
23992 29986 29990 28
23993 29991 29992 28
23994 29991 29993 28
23995 29991 29994 28
23996 29991 29995 28
23997 29996 29997 28
23998 29996 29998 28
23999 29996 29999 28
24000 29996 30000 28
24001 30001 30002 28
24002 30001 30003 28
24003 30001 30004 28
24004 30001 30005 28
24005 30006 30007 28
24006 30006 30008 28
24007 30006 30009 28
24008 30006 30010 28
24009 30011 30012 28
24010 30011 30013 28
24011 30011 30014 28
24012 30011 30015 28
24013 30016 30017 28
24014 30016 30018 28
24015 30016 30019 28
24016 30016 30020 28
24017 30021 30022 28
24018 30021 30023 28
24019 30021 30024 28
24020 30021 30025 28
24021 30026 30027 28
24022 30026 30028 28
24023 30026 30029 28
24024 30026 30030 28
24025 30031 30032 28
24026 30031 30033 28
24027 30031 30034 28
24028 30031 30035 28
24029 30036 30037 28
24030 30036 30038 28
24031 30036 30039 28
24032 30036 30040 28
24033 30041 30042 28
24034 30041 30043 28
24035 30041 30044 28
24036 30041 30045 28
24037 30046 30047 28
24038 30046 30048 28
24039 30046 30049 28
24040 30046 30050 28
24041 30051 30052 28
24042 30051 30053 28
24043 30051 30054 28
24044 30051 30055 28
24045 30056 30057 28
24046 30056 30058 28
24047 30056 30059 28
24048 30056 30060 28
24049 30061 30062 28
24050 30061 30063 28
24051 30061 30064 28
24052 30061 30065 28
24053 30066 30067 28
24054 30066 30068 28
24055 30066 30069 28
24056 30066 30070 28
24057 30071 30072 28
24058 30071 30073 28
24059 30071 30074 28
24060 30071 30075 28
24061 30076 30077 28
24062 30076 30078 28
24063 30076 30079 28
24064 30076 30080 28
24065 30081 30082 28
24066 30081 30083 28
24067 30081 30084 28
24068 30081 30085 28
24069 30086 30087 28
24070 30086 30088 28
24071 30086 30089 28
24072 30086 30090 28
24073 30091 30092 28
24074 30091 30093 28
24075 30091 30094 28
24076 30091 30095 28
24077 30096 30097 28
24078 30096 30098 28
24079 30096 30099 28
24080 30096 30100 28
24081 30101 30102 28
24082 30101 30103 28
24083 30101 30104 28
24084 30101 30105 28
24085 30106 30107 28
24086 30106 30108 28
24087 30106 30109 28
24088 30106 30110 28
24089 30111 30112 28
24090 30111 30113 28
24091 30111 30114 28
24092 30111 30115 28
24093 30116 30117 28
24094 30116 30118 28
24095 30116 30119 28
24096 30116 30120 28
24097 30121 30122 28
24098 30121 30123 28
24099 30121 30124 28
24100 30121 30125 28
24101 30126 30127 28
24102 30126 30128 28
24103 30126 30129 28
24104 30126 30130 28
24105 30131 30132 28
24106 30131 30133 28
24107 30131 30134 28
24108 30131 30135 28
24109 30136 30137 28
24110 30136 30138 28
24111 30136 30139 28
24112 30136 30140 28
24113 30141 30142 28
24114 30141 30143 28
24115 30141 30144 28
24116 30141 30145 28
24117 30146 30147 28
24118 30146 30148 28
24119 30146 30149 28
24120 30146 30150 28
24121 30151 30152 28
24122 30151 30153 28
24123 30151 30154 28
24124 30151 30155 28
24125 30156 30157 28
24126 30156 30158 28
24127 30156 30159 28
24128 30156 30160 28
24129 30161 30162 28
24130 30161 30163 28
24131 30161 30164 28
24132 30161 30165 28
24133 30166 30167 28
24134 30166 30168 28
24135 30166 30169 28
24136 30166 30170 28
24137 30171 30172 28
24138 30171 30173 28
24139 30171 30174 28
24140 30171 30175 28
24141 30176 30177 28
24142 30176 30178 28
24143 30176 30179 28
24144 30176 30180 28
24145 30181 30182 28
24146 30181 30183 28
24147 30181 30184 28
24148 30181 30185 28
24149 30186 30187 28
24150 30186 30188 28
24151 30186 30189 28
24152 30186 30190 28
24153 30191 30192 28
24154 30191 30193 28
24155 30191 30194 28
24156 30191 30195 28
24157 30196 30197 28
24158 30196 30198 28
24159 30196 30199 28
24160 30196 30200 28
24161 30201 30202 28
24162 30201 30203 28
24163 30201 30204 28
24164 30201 30205 28
24165 30206 30207 28
24166 30206 30208 28
24167 30206 30209 28
24168 30206 30210 28
24169 30211 30212 28
24170 30211 30213 28
24171 30211 30214 28
24172 30211 30215 28
24173 30216 30217 28
24174 30216 30218 28
24175 30216 30219 28
24176 30216 30220 28
24177 30221 30222 28
24178 30221 30223 28
24179 30221 30224 28
24180 30221 30225 28
24181 30226 30227 28
24182 30226 30228 28
24183 30226 30229 28
24184 30226 30230 28
24185 30231 30232 28
24186 30231 30233 28
24187 30231 30234 28
24188 30231 30235 28
24189 30236 30237 28
24190 30236 30238 28
24191 30236 30239 28
24192 30236 30240 28
24193 30241 30242 28
24194 30241 30243 28
24195 30241 30244 28
24196 30241 30245 28
24197 30246 30247 28
24198 30246 30248 28
24199 30246 30249 28
24200 30246 30250 28
24201 30251 30252 28
24202 30251 30253 28
24203 30251 30254 28
24204 30251 30255 28
24205 30256 30257 28
24206 30256 30258 28
24207 30256 30259 28
24208 30256 30260 28
24209 30261 30262 28
24210 30261 30263 28
24211 30261 30264 28
24212 30261 30265 28
24213 30266 30267 28
24214 30266 30268 28
24215 30266 30269 28
24216 30266 30270 28
24217 30271 30272 28
24218 30271 30273 28
24219 30271 30274 28
24220 30271 30275 28
24221 30276 30277 28
24222 30276 30278 28
24223 30276 30279 28
24224 30276 30280 28
24225 30281 30282 28
24226 30281 30283 28
24227 30281 30284 28
24228 30281 30285 28
24229 30286 30287 28
24230 30286 30288 28
24231 30286 30289 28
24232 30286 30290 28
24233 30291 30292 28
24234 30291 30293 28
24235 30291 30294 28
24236 30291 30295 28
24237 30296 30297 28
24238 30296 30298 28
24239 30296 30299 28
24240 30296 30300 28
24241 30301 30302 28
24242 30301 30303 28
24243 30301 30304 28
24244 30301 30305 28
24245 30306 30307 28
24246 30306 30308 28
24247 30306 30309 28
24248 30306 30310 28
24249 30311 30312 28
24250 30311 30313 28
24251 30311 30314 28
24252 30311 30315 28
24253 30316 30317 28
24254 30316 30318 28
24255 30316 30319 28
24256 30316 30320 28
24257 30321 30322 28
24258 30321 30323 28
24259 30321 30324 28
24260 30321 30325 28
24261 30326 30327 28
24262 30326 30328 28
24263 30326 30329 28
24264 30326 30330 28
24265 30331 30332 28
24266 30331 30333 28
24267 30331 30334 28
24268 30331 30335 28
24269 30336 30337 28
24270 30336 30338 28
24271 30336 30339 28
24272 30336 30340 28
24273 30341 30342 28
24274 30341 30343 28
24275 30341 30344 28
24276 30341 30345 28
24277 30346 30347 28
24278 30346 30348 28
24279 30346 30349 28
24280 30346 30350 28
24281 30351 30352 28
24282 30351 30353 28
24283 30351 30354 28
24284 30351 30355 28
24285 30356 30357 28
24286 30356 30358 28
24287 30356 30359 28
24288 30356 30360 28
24289 30361 30362 28
24290 30361 30363 28
24291 30361 30364 28
24292 30361 30365 28
24293 30366 30367 28
24294 30366 30368 28
24295 30366 30369 28
24296 30366 30370 28
24297 30371 30372 28
24298 30371 30373 28
24299 30371 30374 28
24300 30371 30375 28
24301 30376 30377 28
24302 30376 30378 28
24303 30376 30379 28
24304 30376 30380 28
24305 30381 30382 28
24306 30381 30383 28
24307 30381 30384 28
24308 30381 30385 28
24309 30386 30387 28
24310 30386 30388 28
24311 30386 30389 28
24312 30386 30390 28
24313 30391 30392 28
24314 30391 30393 28
24315 30391 30394 28
24316 30391 30395 28
24317 30396 30397 28
24318 30396 30398 28
24319 30396 30399 28
24320 30396 30400 28
24321 30401 30402 28
24322 30401 30403 28
24323 30401 30404 28
24324 30401 30405 28
24325 30406 30407 28
24326 30406 30408 28
24327 30406 30409 28
24328 30406 30410 28
24329 30411 30412 28
24330 30411 30413 28
24331 30411 30414 28
24332 30411 30415 28
24333 30416 30417 28
24334 30416 30418 28
24335 30416 30419 28
24336 30416 30420 28
24337 30421 30422 28
24338 30421 30423 28
24339 30421 30424 28
24340 30421 30425 28
24341 30426 30427 28
24342 30426 30428 28
24343 30426 30429 28
24344 30426 30430 28
24345 30431 30432 28
24346 30431 30433 28
24347 30431 30434 28
24348 30431 30435 28
24349 30436 30437 28
24350 30436 30438 28
24351 30436 30439 28
24352 30436 30440 28
24353 30441 30442 28
24354 30441 30443 28
24355 30441 30444 28
24356 30441 30445 28
24357 30446 30447 28
24358 30446 30448 28
24359 30446 30449 28
24360 30446 30450 28
24361 30451 30452 28
24362 30451 30453 28
24363 30451 30454 28
24364 30451 30455 28
24365 30456 30457 28
24366 30456 30458 28
24367 30456 30459 28
24368 30456 30460 28
24369 30461 30462 28
24370 30461 30463 28
24371 30461 30464 28
24372 30461 30465 28
24373 30466 30467 28
24374 30466 30468 28
24375 30466 30469 28
24376 30466 30470 28
24377 30471 30472 28
24378 30471 30473 28
24379 30471 30474 28
24380 30471 30475 28
24381 30476 30477 28
24382 30476 30478 28
24383 30476 30479 28
24384 30476 30480 28
24385 30481 30482 28
24386 30481 30483 28
24387 30481 30484 28
24388 30481 30485 28
24389 30486 30487 28
24390 30486 30488 28
24391 30486 30489 28
24392 30486 30490 28
24393 30491 30492 28
24394 30491 30493 28
24395 30491 30494 28
24396 30491 30495 28
24397 30496 30497 28
24398 30496 30498 28
24399 30496 30499 28
24400 30496 30500 28
24401 30501 30502 28
24402 30501 30503 28
24403 30501 30504 28
24404 30501 30505 28
24405 30506 30507 28
24406 30506 30508 28
24407 30506 30509 28
24408 30506 30510 28
24409 30511 30512 28
24410 30511 30513 28
24411 30511 30514 28
24412 30511 30515 28
24413 30516 30517 28
24414 30516 30518 28
24415 30516 30519 28
24416 30516 30520 28
24417 30521 30522 28
24418 30521 30523 28
24419 30521 30524 28
24420 30521 30525 28
24421 30526 30527 28
24422 30526 30528 28
24423 30526 30529 28
24424 30526 30530 28
24425 30531 30532 28
24426 30531 30533 28
24427 30531 30534 28
24428 30531 30535 28
24429 30536 30537 28
24430 30536 30538 28
24431 30536 30539 28
24432 30536 30540 28
24433 30541 30542 28
24434 30541 30543 28
24435 30541 30544 28
24436 30541 30545 28
24437 30546 30547 28
24438 30546 30548 28
24439 30546 30549 28
24440 30546 30550 28
24441 30551 30552 28
24442 30551 30553 28
24443 30551 30554 28
24444 30551 30555 28
24445 30556 30557 28
24446 30556 30558 28
24447 30556 30559 28
24448 30556 30560 28
24449 30561 30562 28
24450 30561 30563 28
24451 30561 30564 28
24452 30561 30565 28
24453 30566 30567 28
24454 30566 30568 28
24455 30566 30569 28
24456 30566 30570 28
24457 30571 30572 28
24458 30571 30573 28
24459 30571 30574 28
24460 30571 30575 28
24461 30576 30577 28
24462 30576 30578 28
24463 30576 30579 28
24464 30576 30580 28
24465 30581 30582 28
24466 30581 30583 28
24467 30581 30584 28
24468 30581 30585 28
24469 30586 30587 28
24470 30586 30588 28
24471 30586 30589 28
24472 30586 30590 28
24473 30591 30592 28
24474 30591 30593 28
24475 30591 30594 28
24476 30591 30595 28
24477 30596 30597 28
24478 30596 30598 28
24479 30596 30599 28
24480 30596 30600 28
24481 30601 30602 28
24482 30601 30603 28
24483 30601 30604 28
24484 30601 30605 28
24485 30606 30607 28
24486 30606 30608 28
24487 30606 30609 28
24488 30606 30610 28
24489 30611 30612 28
24490 30611 30613 28
24491 30611 30614 28
24492 30611 30615 28
24493 30616 30617 28
24494 30616 30618 28
24495 30616 30619 28
24496 30616 30620 28
24497 30621 30622 28
24498 30621 30623 28
24499 30621 30624 28
24500 30621 30625 28
24501 30626 30627 28
24502 30626 30628 28
24503 30626 30629 28
24504 30626 30630 28
24505 30631 30632 28
24506 30631 30633 28
24507 30631 30634 28
24508 30631 30635 28
24509 30636 30637 28
24510 30636 30638 28
24511 30636 30639 28
24512 30636 30640 28
24513 30641 30642 28
24514 30641 30643 28
24515 30641 30644 28
24516 30641 30645 28
24517 30646 30647 28
24518 30646 30648 28
24519 30646 30649 28
24520 30646 30650 28
24521 30651 30652 28
24522 30651 30653 28
24523 30651 30654 28
24524 30651 30655 28
24525 30656 30657 28
24526 30656 30658 28
24527 30656 30659 28
24528 30656 30660 28
24529 30661 30662 28
24530 30661 30663 28
24531 30661 30664 28
24532 30661 30665 28
24533 30666 30667 28
24534 30666 30668 28
24535 30666 30669 28
24536 30666 30670 28
24537 30671 30672 28
24538 30671 30673 28
24539 30671 30674 28
24540 30671 30675 28
24541 30676 30677 28
24542 30676 30678 28
24543 30676 30679 28
24544 30676 30680 28
24545 30681 30682 28
24546 30681 30683 28
24547 30681 30684 28
24548 30681 30685 28
24549 30686 30687 28
24550 30686 30688 28
24551 30686 30689 28
24552 30686 30690 28
24553 30691 30692 28
24554 30691 30693 28
24555 30691 30694 28
24556 30691 30695 28
24557 30696 30697 28
24558 30696 30698 28
24559 30696 30699 28
24560 30696 30700 28
24561 30701 30702 28
24562 30701 30703 28
24563 30701 30704 28
24564 30701 30705 28
24565 30706 30707 28
24566 30706 30708 28
24567 30706 30709 28
24568 30706 30710 28
24569 30711 30712 28
24570 30711 30713 28
24571 30711 30714 28
24572 30711 30715 28
24573 30716 30717 28
24574 30716 30718 28
24575 30716 30719 28
24576 30716 30720 28
24577 30721 30722 28
24578 30721 30723 28
24579 30721 30724 28
24580 30721 30725 28
24581 30726 30727 28
24582 30726 30728 28
24583 30726 30729 28
24584 30726 30730 28
24585 30731 30732 28
24586 30731 30733 28
24587 30731 30734 28
24588 30731 30735 28
24589 30736 30737 28
24590 30736 30738 28
24591 30736 30739 28
24592 30736 30740 28
24593 30741 30742 28
24594 30741 30743 28
24595 30741 30744 28
24596 30741 30745 28
24597 30746 30747 28
24598 30746 30748 28
24599 30746 30749 28
24600 30746 30750 28
24601 30751 30752 28
24602 30751 30753 28
24603 30751 30754 28
24604 30751 30755 28
24605 30756 30757 28
24606 30756 30758 28
24607 30756 30759 28
24608 30756 30760 28
24609 30761 30762 28
24610 30761 30763 28
24611 30761 30764 28
24612 30761 30765 28
24613 30766 30767 28
24614 30766 30768 28
24615 30766 30769 28
24616 30766 30770 28
24617 30771 30772 28
24618 30771 30773 28
24619 30771 30774 28
24620 30771 30775 28
24621 30776 30777 28
24622 30776 30778 28
24623 30776 30779 28
24624 30776 30780 28
24625 30781 30782 28
24626 30781 30783 28
24627 30781 30784 28
24628 30781 30785 28
24629 30786 30787 28
24630 30786 30788 28
24631 30786 30789 28
24632 30786 30790 28
24633 30791 30792 28
24634 30791 30793 28
24635 30791 30794 28
24636 30791 30795 28
24637 30796 30797 28
24638 30796 30798 28
24639 30796 30799 28
24640 30796 30800 28
24641 30801 30802 28
24642 30801 30803 28
24643 30801 30804 28
24644 30801 30805 28
24645 30806 30807 28
24646 30806 30808 28
24647 30806 30809 28
24648 30806 30810 28
24649 30811 30812 28
24650 30811 30813 28
24651 30811 30814 28
24652 30811 30815 28
24653 30816 30817 28
24654 30816 30818 28
24655 30816 30819 28
24656 30816 30820 28
24657 30821 30822 28
24658 30821 30823 28
24659 30821 30824 28
24660 30821 30825 28
24661 30826 30827 28
24662 30826 30828 28
24663 30826 30829 28
24664 30826 30830 28
24665 30831 30832 28
24666 30831 30833 28
24667 30831 30834 28
24668 30831 30835 28
24669 30836 30837 28
24670 30836 30838 28
24671 30836 30839 28
24672 30836 30840 28
24673 30841 30842 28
24674 30841 30843 28
24675 30841 30844 28
24676 30841 30845 28
24677 30846 30847 28
24678 30846 30848 28
24679 30846 30849 28
24680 30846 30850 28
24681 30851 30852 28
24682 30851 30853 28
24683 30851 30854 28
24684 30851 30855 28
24685 30856 30857 28
24686 30856 30858 28
24687 30856 30859 28
24688 30856 30860 28
24689 30861 30862 28
24690 30861 30863 28
24691 30861 30864 28
24692 30861 30865 28
24693 30866 30867 28
24694 30866 30868 28
24695 30866 30869 28
24696 30866 30870 28
24697 30871 30872 28
24698 30871 30873 28
24699 30871 30874 28
24700 30871 30875 28
24701 30876 30877 28
24702 30876 30878 28
24703 30876 30879 28
24704 30876 30880 28
24705 30881 30882 28
24706 30881 30883 28
24707 30881 30884 28
24708 30881 30885 28
24709 30886 30887 28
24710 30886 30888 28
24711 30886 30889 28
24712 30886 30890 28
24713 30891 30892 28
24714 30891 30893 28
24715 30891 30894 28
24716 30891 30895 28
24717 30896 30897 28
24718 30896 30898 28
24719 30896 30899 28
24720 30896 30900 28
24721 30901 30902 28
24722 30901 30903 28
24723 30901 30904 28
24724 30901 30905 28
24725 30906 30907 28
24726 30906 30908 28
24727 30906 30909 28
24728 30906 30910 28
24729 30911 30912 28
24730 30911 30913 28
24731 30911 30914 28
24732 30911 30915 28
24733 30916 30917 28
24734 30916 30918 28
24735 30916 30919 28
24736 30916 30920 28
24737 30921 30922 28
24738 30921 30923 28
24739 30921 30924 28
24740 30921 30925 28
24741 30926 30927 28
24742 30926 30928 28
24743 30926 30929 28
24744 30926 30930 28
24745 30931 30932 28
24746 30931 30933 28
24747 30931 30934 28
24748 30931 30935 28
24749 30936 30937 28
24750 30936 30938 28
24751 30936 30939 28
24752 30936 30940 28
24753 30941 30942 28
24754 30941 30943 28
24755 30941 30944 28
24756 30941 30945 28
24757 30946 30947 28
24758 30946 30948 28
24759 30946 30949 28
24760 30946 30950 28
24761 30951 30952 28
24762 30951 30953 28
24763 30951 30954 28
24764 30951 30955 28
24765 30956 30957 28
24766 30956 30958 28
24767 30956 30959 28
24768 30956 30960 28
24769 30961 30962 28
24770 30961 30963 28
24771 30961 30964 28
24772 30961 30965 28
24773 30966 30967 28
24774 30966 30968 28
24775 30966 30969 28
24776 30966 30970 28
24777 30971 30972 28
24778 30971 30973 28
24779 30971 30974 28
24780 30971 30975 28
24781 30976 30977 28
24782 30976 30978 28
24783 30976 30979 28
24784 30976 30980 28
24785 30981 30982 28
24786 30981 30983 28
24787 30981 30984 28
24788 30981 30985 28
24789 30986 30987 28
24790 30986 30988 28
24791 30986 30989 28
24792 30986 30990 28
24793 30991 30992 28
24794 30991 30993 28
24795 30991 30994 28
24796 30991 30995 28
24797 30996 30997 28
24798 30996 30998 28
24799 30996 30999 28
24800 30996 31000 28
24801 31001 31002 28
24802 31001 31003 28
24803 31001 31004 28
24804 31001 31005 28
24805 31006 31007 28
24806 31006 31008 28
24807 31006 31009 28
24808 31006 31010 28
24809 31011 31012 28
24810 31011 31013 28
24811 31011 31014 28
24812 31011 31015 28
24813 31016 31017 28
24814 31016 31018 28
24815 31016 31019 28
24816 31016 31020 28
24817 31021 31022 28
24818 31021 31023 28
24819 31021 31024 28
24820 31021 31025 28
24821 31026 31027 28
24822 31026 31028 28
24823 31026 31029 28
24824 31026 31030 28
24825 31031 31032 28
24826 31031 31033 28
24827 31031 31034 28
24828 31031 31035 28
24829 31036 31037 28
24830 31036 31038 28
24831 31036 31039 28
24832 31036 31040 28
24833 31041 31042 28
24834 31041 31043 28
24835 31041 31044 28
24836 31041 31045 28
24837 31046 31047 28
24838 31046 31048 28
24839 31046 31049 28
24840 31046 31050 28
24841 31051 31052 28
24842 31051 31053 28
24843 31051 31054 28
24844 31051 31055 28
24845 31056 31057 28
24846 31056 31058 28
24847 31056 31059 28
24848 31056 31060 28
24849 31061 31062 28
24850 31061 31063 28
24851 31061 31064 28
24852 31061 31065 28
24853 31066 31067 28
24854 31066 31068 28
24855 31066 31069 28
24856 31066 31070 28
24857 31071 31072 28
24858 31071 31073 28
24859 31071 31074 28
24860 31071 31075 28
24861 31076 31077 28
24862 31076 31078 28
24863 31076 31079 28
24864 31076 31080 28
24865 31081 31082 28
24866 31081 31083 28
24867 31081 31084 28
24868 31081 31085 28
24869 31086 31087 28
24870 31086 31088 28
24871 31086 31089 28
24872 31086 31090 28
24873 31091 31092 28
24874 31091 31093 28
24875 31091 31094 28
24876 31091 31095 28
24877 31096 31097 28
24878 31096 31098 28
24879 31096 31099 28
24880 31096 31100 28
24881 31101 31102 28
24882 31101 31103 28
24883 31101 31104 28
24884 31101 31105 28
24885 31106 31107 28
24886 31106 31108 28
24887 31106 31109 28
24888 31106 31110 28
24889 31111 31112 28
24890 31111 31113 28
24891 31111 31114 28
24892 31111 31115 28
24893 31116 31117 28
24894 31116 31118 28
24895 31116 31119 28
24896 31116 31120 28
24897 31121 31122 28
24898 31121 31123 28
24899 31121 31124 28
24900 31121 31125 28
24901 31126 31127 28
24902 31126 31128 28
24903 31126 31129 28
24904 31126 31130 28
24905 31131 31132 28
24906 31131 31133 28
24907 31131 31134 28
24908 31131 31135 28
24909 31136 31137 28
24910 31136 31138 28
24911 31136 31139 28
24912 31136 31140 28
24913 31141 31142 28
24914 31141 31143 28
24915 31141 31144 28
24916 31141 31145 28
24917 31146 31147 28
24918 31146 31148 28
24919 31146 31149 28
24920 31146 31150 28
24921 31151 31152 28
24922 31151 31153 28
24923 31151 31154 28
24924 31151 31155 28
24925 31156 31157 28
24926 31156 31158 28
24927 31156 31159 28
24928 31156 31160 28
24929 31161 31162 28
24930 31161 31163 28
24931 31161 31164 28
24932 31161 31165 28
24933 31166 31167 28
24934 31166 31168 28
24935 31166 31169 28
24936 31166 31170 28
24937 31171 31172 28
24938 31171 31173 28
24939 31171 31174 28
24940 31171 31175 28
24941 31176 31177 28
24942 31176 31178 28
24943 31176 31179 28
24944 31176 31180 28
24945 31181 31182 28
24946 31181 31183 28
24947 31181 31184 28
24948 31181 31185 28
24949 31186 31187 28
24950 31186 31188 28
24951 31186 31189 28
24952 31186 31190 28
24953 31191 31192 28
24954 31191 31193 28
24955 31191 31194 28
24956 31191 31195 28
24957 31196 31197 28
24958 31196 31198 28
24959 31196 31199 28
24960 31196 31200 28
24961 31201 31202 28
24962 31201 31203 28
24963 31201 31204 28
24964 31201 31205 28
24965 31206 31207 28
24966 31206 31208 28
24967 31206 31209 28
24968 31206 31210 28
24969 31211 31212 28
24970 31211 31213 28
24971 31211 31214 28
24972 31211 31215 28
24973 31216 31217 28
24974 31216 31218 28
24975 31216 31219 28
24976 31216 31220 28
24977 31221 31222 28
24978 31221 31223 28
24979 31221 31224 28
24980 31221 31225 28
24981 31226 31227 28
24982 31226 31228 28
24983 31226 31229 28
24984 31226 31230 28
24985 31231 31232 28
24986 31231 31233 28
24987 31231 31234 28
24988 31231 31235 28
24989 31236 31237 28
24990 31236 31238 28
24991 31236 31239 28
24992 31236 31240 28
24993 31241 31242 28
24994 31241 31243 28
24995 31241 31244 28
24996 31241 31245 28
24997 31246 31247 28
24998 31246 31248 28
24999 31246 31249 28
25000 31246 31250 28
25001 31251 31252 28
25002 31251 31253 28
25003 31251 31254 28
25004 31251 31255 28
25005 31256 31257 28
25006 31256 31258 28
25007 31256 31259 28
25008 31256 31260 28
25009 31261 31262 28
25010 31261 31263 28
25011 31261 31264 28
25012 31261 31265 28
25013 31266 31267 28
25014 31266 31268 28
25015 31266 31269 28
25016 31266 31270 28
25017 31271 31272 28
25018 31271 31273 28
25019 31271 31274 28
25020 31271 31275 28
25021 31276 31277 28
25022 31276 31278 28
25023 31276 31279 28
25024 31276 31280 28
25025 31281 31282 28
25026 31281 31283 28
25027 31281 31284 28
25028 31281 31285 28
25029 31286 31287 28
25030 31286 31288 28
25031 31286 31289 28
25032 31286 31290 28
25033 31291 31292 28
25034 31291 31293 28
25035 31291 31294 28
25036 31291 31295 28
25037 31296 31297 28
25038 31296 31298 28
25039 31296 31299 28
25040 31296 31300 28
25041 31301 31302 28
25042 31301 31303 28
25043 31301 31304 28
25044 31301 31305 28
25045 31306 31307 28
25046 31306 31308 28
25047 31306 31309 28
25048 31306 31310 28
25049 31311 31312 28
25050 31311 31313 28
25051 31311 31314 28
25052 31311 31315 28
25053 31316 31317 28
25054 31316 31318 28
25055 31316 31319 28
25056 31316 31320 28
25057 31321 31322 28
25058 31321 31323 28
25059 31321 31324 28
25060 31321 31325 28
25061 31326 31327 28
25062 31326 31328 28
25063 31326 31329 28
25064 31326 31330 28
25065 31331 31332 28
25066 31331 31333 28
25067 31331 31334 28
25068 31331 31335 28
25069 31336 31337 28
25070 31336 31338 28
25071 31336 31339 28
25072 31336 31340 28
25073 31341 31342 28
25074 31341 31343 28
25075 31341 31344 28
25076 31341 31345 28
25077 31346 31347 28
25078 31346 31348 28
25079 31346 31349 28
25080 31346 31350 28
25081 31351 31352 28
25082 31351 31353 28
25083 31351 31354 28
25084 31351 31355 28
25085 31356 31357 28
25086 31356 31358 28
25087 31356 31359 28
25088 31356 31360 28
25089 31361 31362 28
25090 31361 31363 28
25091 31361 31364 28
25092 31361 31365 28
25093 31366 31367 28
25094 31366 31368 28
25095 31366 31369 28
25096 31366 31370 28
25097 31371 31372 28
25098 31371 31373 28
25099 31371 31374 28
25100 31371 31375 28
25101 31376 31377 28
25102 31376 31378 28
25103 31376 31379 28
25104 31376 31380 28
25105 31381 31382 28
25106 31381 31383 28
25107 31381 31384 28
25108 31381 31385 28
25109 31386 31387 28
25110 31386 31388 28
25111 31386 31389 28
25112 31386 31390 28
25113 31391 31392 28
25114 31391 31393 28
25115 31391 31394 28
25116 31391 31395 28
25117 31396 31397 28
25118 31396 31398 28
25119 31396 31399 28
25120 31396 31400 28
25121 31401 31402 28
25122 31401 31403 28
25123 31401 31404 28
25124 31401 31405 28
25125 31406 31407 28
25126 31406 31408 28
25127 31406 31409 28
25128 31406 31410 28
25129 31411 31412 28
25130 31411 31413 28
25131 31411 31414 28
25132 31411 31415 28
25133 31416 31417 28
25134 31416 31418 28
25135 31416 31419 28
25136 31416 31420 28
25137 31421 31422 28
25138 31421 31423 28
25139 31421 31424 28
25140 31421 31425 28
25141 31426 31427 28
25142 31426 31428 28
25143 31426 31429 28
25144 31426 31430 28
25145 31431 31432 28
25146 31431 31433 28
25147 31431 31434 28
25148 31431 31435 28
25149 31436 31437 28
25150 31436 31438 28
25151 31436 31439 28
25152 31436 31440 28
25153 31441 31442 28
25154 31441 31443 28
25155 31441 31444 28
25156 31441 31445 28
25157 31446 31447 28
25158 31446 31448 28
25159 31446 31449 28
25160 31446 31450 28
25161 31451 31452 28
25162 31451 31453 28
25163 31451 31454 28
25164 31451 31455 28
25165 31456 31457 28
25166 31456 31458 28
25167 31456 31459 28
25168 31456 31460 28
25169 31461 31462 28
25170 31461 31463 28
25171 31461 31464 28
25172 31461 31465 28
25173 31466 31467 28
25174 31466 31468 28
25175 31466 31469 28
25176 31466 31470 28
25177 31471 31472 28
25178 31471 31473 28
25179 31471 31474 28
25180 31471 31475 28
25181 31476 31477 28
25182 31476 31478 28
25183 31476 31479 28
25184 31476 31480 28
25185 31481 31482 28
25186 31481 31483 28
25187 31481 31484 28
25188 31481 31485 28
25189 31486 31487 28
25190 31486 31488 28
25191 31486 31489 28
25192 31486 31490 28
25193 31491 31492 28
25194 31491 31493 28
25195 31491 31494 28
25196 31491 31495 28
25197 31496 31497 28
25198 31496 31498 28
25199 31496 31499 28
25200 31496 31500 28
25201 31501 31502 28
25202 31501 31503 28
25203 31501 31504 28
25204 31501 31505 28
25205 31506 31507 28
25206 31506 31508 28
25207 31506 31509 28
25208 31506 31510 28
25209 31511 31512 28
25210 31511 31513 28
25211 31511 31514 28
25212 31511 31515 28
25213 31516 31517 28
25214 31516 31518 28
25215 31516 31519 28
25216 31516 31520 28
25217 31521 31522 28
25218 31521 31523 28
25219 31521 31524 28
25220 31521 31525 28
25221 31526 31527 28
25222 31526 31528 28
25223 31526 31529 28
25224 31526 31530 28
25225 31531 31532 28
25226 31531 31533 28
25227 31531 31534 28
25228 31531 31535 28
25229 31536 31537 28
25230 31536 31538 28
25231 31536 31539 28
25232 31536 31540 28
25233 31541 31542 28
25234 31541 31543 28
25235 31541 31544 28
25236 31541 31545 28
25237 31546 31547 28
25238 31546 31548 28
25239 31546 31549 28
25240 31546 31550 28
25241 31551 31552 28
25242 31551 31553 28
25243 31551 31554 28
25244 31551 31555 28
25245 31556 31557 28
25246 31556 31558 28
25247 31556 31559 28
25248 31556 31560 28
25249 31561 31562 28
25250 31561 31563 28
25251 31561 31564 28
25252 31561 31565 28
25253 31566 31567 28
25254 31566 31568 28
25255 31566 31569 28
25256 31566 31570 28
25257 31571 31572 28
25258 31571 31573 28
25259 31571 31574 28
25260 31571 31575 28
25261 31576 31577 28
25262 31576 31578 28
25263 31576 31579 28
25264 31576 31580 28
25265 31581 31582 28
25266 31581 31583 28
25267 31581 31584 28
25268 31581 31585 28
25269 31586 31587 28
25270 31586 31588 28
25271 31586 31589 28
25272 31586 31590 28
25273 31591 31592 28
25274 31591 31593 28
25275 31591 31594 28
25276 31591 31595 28
25277 31596 31597 28
25278 31596 31598 28
25279 31596 31599 28
25280 31596 31600 28
25281 31601 31602 28
25282 31601 31603 28
25283 31601 31604 28
25284 31601 31605 28
25285 31606 31607 28
25286 31606 31608 28
25287 31606 31609 28
25288 31606 31610 28
25289 31611 31612 28
25290 31611 31613 28
25291 31611 31614 28
25292 31611 31615 28
25293 31616 31617 28
25294 31616 31618 28
25295 31616 31619 28
25296 31616 31620 28
25297 31621 31622 28
25298 31621 31623 28
25299 31621 31624 28
25300 31621 31625 28
25301 31626 31627 28
25302 31626 31628 28
25303 31626 31629 28
25304 31626 31630 28
25305 31631 31632 28
25306 31631 31633 28
25307 31631 31634 28
25308 31631 31635 28
25309 31636 31637 28
25310 31636 31638 28
25311 31636 31639 28
25312 31636 31640 28
25313 31641 31642 28
25314 31641 31643 28
25315 31641 31644 28
25316 31641 31645 28
25317 31646 31647 28
25318 31646 31648 28
25319 31646 31649 28
25320 31646 31650 28
25321 31651 31652 28
25322 31651 31653 28
25323 31651 31654 28
25324 31651 31655 28
25325 31656 31657 28
25326 31656 31658 28
25327 31656 31659 28
25328 31656 31660 28
25329 31661 31662 28
25330 31661 31663 28
25331 31661 31664 28
25332 31661 31665 28
25333 31666 31667 28
25334 31666 31668 28
25335 31666 31669 28
25336 31666 31670 28
25337 31671 31672 28
25338 31671 31673 28
25339 31671 31674 28
25340 31671 31675 28
25341 31676 31677 28
25342 31676 31678 28
25343 31676 31679 28
25344 31676 31680 28
25345 31681 31682 28
25346 31681 31683 28
25347 31681 31684 28
25348 31681 31685 28
25349 31686 31687 28
25350 31686 31688 28
25351 31686 31689 28
25352 31686 31690 28
25353 31691 31692 28
25354 31691 31693 28
25355 31691 31694 28
25356 31691 31695 28
25357 31696 31697 28
25358 31696 31698 28
25359 31696 31699 28
25360 31696 31700 28
25361 31701 31702 28
25362 31701 31703 28
25363 31701 31704 28
25364 31701 31705 28
25365 31706 31707 28
25366 31706 31708 28
25367 31706 31709 28
25368 31706 31710 28
25369 31711 31712 28
25370 31711 31713 28
25371 31711 31714 28
25372 31711 31715 28
25373 31716 31717 28
25374 31716 31718 28
25375 31716 31719 28
25376 31716 31720 28
25377 31721 31722 28
25378 31721 31723 28
25379 31721 31724 28
25380 31721 31725 28
25381 31726 31727 28
25382 31726 31728 28
25383 31726 31729 28
25384 31726 31730 28
25385 31731 31732 28
25386 31731 31733 28
25387 31731 31734 28
25388 31731 31735 28
25389 31736 31737 28
25390 31736 31738 28
25391 31736 31739 28
25392 31736 31740 28
25393 31741 31742 28
25394 31741 31743 28
25395 31741 31744 28
25396 31741 31745 28
25397 31746 31747 28
25398 31746 31748 28
25399 31746 31749 28
25400 31746 31750 28
25401 31751 31752 28
25402 31751 31753 28
25403 31751 31754 28
25404 31751 31755 28
25405 31756 31757 28
25406 31756 31758 28
25407 31756 31759 28
25408 31756 31760 28
25409 31761 31762 28
25410 31761 31763 28
25411 31761 31764 28
25412 31761 31765 28
25413 31766 31767 28
25414 31766 31768 28
25415 31766 31769 28
25416 31766 31770 28
25417 31771 31772 28
25418 31771 31773 28
25419 31771 31774 28
25420 31771 31775 28
25421 31776 31777 28
25422 31776 31778 28
25423 31776 31779 28
25424 31776 31780 28
25425 31781 31782 28
25426 31781 31783 28
25427 31781 31784 28
25428 31781 31785 28
25429 31786 31787 28
25430 31786 31788 28
25431 31786 31789 28
25432 31786 31790 28
25433 31791 31792 28
25434 31791 31793 28
25435 31791 31794 28
25436 31791 31795 28
25437 31796 31797 28
25438 31796 31798 28
25439 31796 31799 28
25440 31796 31800 28
25441 31801 31802 28
25442 31801 31803 28
25443 31801 31804 28
25444 31801 31805 28
25445 31806 31807 28
25446 31806 31808 28
25447 31806 31809 28
25448 31806 31810 28
25449 31811 31812 28
25450 31811 31813 28
25451 31811 31814 28
25452 31811 31815 28
25453 31816 31817 28
25454 31816 31818 28
25455 31816 31819 28
25456 31816 31820 28
25457 31821 31822 28
25458 31821 31823 28
25459 31821 31824 28
25460 31821 31825 28
25461 31826 31827 28
25462 31826 31828 28
25463 31826 31829 28
25464 31826 31830 28
25465 31831 31832 28
25466 31831 31833 28
25467 31831 31834 28
25468 31831 31835 28
25469 31836 31837 28
25470 31836 31838 28
25471 31836 31839 28
25472 31836 31840 28
25473 31841 31842 28
25474 31841 31843 28
25475 31841 31844 28
25476 31841 31845 28
25477 31846 31847 28
25478 31846 31848 28
25479 31846 31849 28
25480 31846 31850 28
25481 31851 31852 28
25482 31851 31853 28
25483 31851 31854 28
25484 31851 31855 28
25485 31856 31857 28
25486 31856 31858 28
25487 31856 31859 28
25488 31856 31860 28
25489 31861 31862 28
25490 31861 31863 28
25491 31861 31864 28
25492 31861 31865 28
25493 31866 31867 28
25494 31866 31868 28
25495 31866 31869 28
25496 31866 31870 28
25497 31871 31872 28
25498 31871 31873 28
25499 31871 31874 28
25500 31871 31875 28
25501 31876 31877 28
25502 31876 31878 28
25503 31876 31879 28
25504 31876 31880 28
25505 31881 31882 28
25506 31881 31883 28
25507 31881 31884 28
25508 31881 31885 28
25509 31886 31887 28
25510 31886 31888 28
25511 31886 31889 28
25512 31886 31890 28
25513 31891 31892 28
25514 31891 31893 28
25515 31891 31894 28
25516 31891 31895 28
25517 31896 31897 28
25518 31896 31898 28
25519 31896 31899 28
25520 31896 31900 28
25521 31901 31902 28
25522 31901 31903 28
25523 31901 31904 28
25524 31901 31905 28
25525 31906 31907 28
25526 31906 31908 28
25527 31906 31909 28
25528 31906 31910 28
25529 31911 31912 28
25530 31911 31913 28
25531 31911 31914 28
25532 31911 31915 28
25533 31916 31917 28
25534 31916 31918 28
25535 31916 31919 28
25536 31916 31920 28
25537 31921 31922 28
25538 31921 31923 28
25539 31921 31924 28
25540 31921 31925 28
25541 31926 31927 28
25542 31926 31928 28
25543 31926 31929 28
25544 31926 31930 28
25545 31931 31932 28
25546 31931 31933 28
25547 31931 31934 28
25548 31931 31935 28
25549 31936 31937 28
25550 31936 31938 28
25551 31936 31939 28
25552 31936 31940 28
25553 31941 31942 28
25554 31941 31943 28
25555 31941 31944 28
25556 31941 31945 28
25557 31946 31947 28
25558 31946 31948 28
25559 31946 31949 28
25560 31946 31950 28
25561 31951 31952 28
25562 31951 31953 28
25563 31951 31954 28
25564 31951 31955 28
25565 31956 31957 28
25566 31956 31958 28
25567 31956 31959 28
25568 31956 31960 28
25569 31961 31962 28
25570 31961 31963 28
25571 31961 31964 28
25572 31961 31965 28
25573 31966 31967 28
25574 31966 31968 28
25575 31966 31969 28
25576 31966 31970 28
25577 31971 31972 28
25578 31971 31973 28
25579 31971 31974 28
25580 31971 31975 28
25581 31976 31977 28
25582 31976 31978 28
25583 31976 31979 28
25584 31976 31980 28
25585 31981 31982 28
25586 31981 31983 28
25587 31981 31984 28
25588 31981 31985 28
25589 31986 31987 28
25590 31986 31988 28
25591 31986 31989 28
25592 31986 31990 28
25593 31991 31992 28
25594 31991 31993 28
25595 31991 31994 28
25596 31991 31995 28
25597 31996 31997 28
25598 31996 31998 28
25599 31996 31999 28
25600 31996 32000 28
25601 32001 32002 28
25602 32001 32003 28
25603 32001 32004 28
25604 32001 32005 28
25605 32006 32007 28
25606 32006 32008 28
25607 32006 32009 28
25608 32006 32010 28
25609 32011 32012 28
25610 32011 32013 28
25611 32011 32014 28
25612 32011 32015 28
25613 32016 32017 28
25614 32016 32018 28
25615 32016 32019 28
25616 32016 32020 28
25617 32021 32022 28
25618 32021 32023 28
25619 32021 32024 28
25620 32021 32025 28
25621 32026 32027 28
25622 32026 32028 28
25623 32026 32029 28
25624 32026 32030 28
25625 32031 32032 28
25626 32031 32033 28
25627 32031 32034 28
25628 32031 32035 28
25629 32036 32037 28
25630 32036 32038 28
25631 32036 32039 28
25632 32036 32040 28
25633 32041 32042 28
25634 32041 32043 28
25635 32041 32044 28
25636 32041 32045 28
25637 32046 32047 28
25638 32046 32048 28
25639 32046 32049 28
25640 32046 32050 28
25641 32051 32052 28
25642 32051 32053 28
25643 32051 32054 28
25644 32051 32055 28
25645 32056 32057 28
25646 32056 32058 28
25647 32056 32059 28
25648 32056 32060 28
25649 32061 32062 28
25650 32061 32063 28
25651 32061 32064 28
25652 32061 32065 28
25653 32066 32067 28
25654 32066 32068 28
25655 32066 32069 28
25656 32066 32070 28
25657 32071 32072 28
25658 32071 32073 28
25659 32071 32074 28
25660 32071 32075 28
25661 32076 32077 28
25662 32076 32078 28
25663 32076 32079 28
25664 32076 32080 28
25665 32081 32082 28
25666 32081 32083 28
25667 32081 32084 28
25668 32081 32085 28
25669 32086 32087 28
25670 32086 32088 28
25671 32086 32089 28
25672 32086 32090 28
25673 32091 32092 28
25674 32091 32093 28
25675 32091 32094 28
25676 32091 32095 28
25677 32096 32097 28
25678 32096 32098 28
25679 32096 32099 28
25680 32096 32100 28
25681 32101 32102 28
25682 32101 32103 28
25683 32101 32104 28
25684 32101 32105 28
25685 32106 32107 28
25686 32106 32108 28
25687 32106 32109 28
25688 32106 32110 28
25689 32111 32112 28
25690 32111 32113 28
25691 32111 32114 28
25692 32111 32115 28
25693 32116 32117 28
25694 32116 32118 28
25695 32116 32119 28
25696 32116 32120 28
25697 32121 32122 28
25698 32121 32123 28
25699 32121 32124 28
25700 32121 32125 28
25701 32126 32127 28
25702 32126 32128 28
25703 32126 32129 28
25704 32126 32130 28
25705 32131 32132 28
25706 32131 32133 28
25707 32131 32134 28
25708 32131 32135 28
25709 32136 32137 28
25710 32136 32138 28
25711 32136 32139 28
25712 32136 32140 28
25713 32141 32142 28
25714 32141 32143 28
25715 32141 32144 28
25716 32141 32145 28
25717 32146 32147 28
25718 32146 32148 28
25719 32146 32149 28
25720 32146 32150 28
25721 32151 32152 28
25722 32151 32153 28
25723 32151 32154 28
25724 32151 32155 28
25725 32156 32157 28
25726 32156 32158 28
25727 32156 32159 28
25728 32156 32160 28
25729 32161 32162 28
25730 32161 32163 28
25731 32161 32164 28
25732 32161 32165 28
25733 32166 32167 28
25734 32166 32168 28
25735 32166 32169 28
25736 32166 32170 28
25737 32171 32172 28
25738 32171 32173 28
25739 32171 32174 28
25740 32171 32175 28
25741 32176 32177 28
25742 32176 32178 28
25743 32176 32179 28
25744 32176 32180 28
25745 32181 32182 28
25746 32181 32183 28
25747 32181 32184 28
25748 32181 32185 28
25749 32186 32187 28
25750 32186 32188 28
25751 32186 32189 28
25752 32186 32190 28
25753 32191 32192 28
25754 32191 32193 28
25755 32191 32194 28
25756 32191 32195 28
25757 32196 32197 28
25758 32196 32198 28
25759 32196 32199 28
25760 32196 32200 28
25761 32201 32202 28
25762 32201 32203 28
25763 32201 32204 28
25764 32201 32205 28
25765 32206 32207 28
25766 32206 32208 28
25767 32206 32209 28
25768 32206 32210 28
25769 32211 32212 28
25770 32211 32213 28
25771 32211 32214 28
25772 32211 32215 28
25773 32216 32217 28
25774 32216 32218 28
25775 32216 32219 28
25776 32216 32220 28
25777 32221 32222 28
25778 32221 32223 28
25779 32221 32224 28
25780 32221 32225 28
25781 32226 32227 28
25782 32226 32228 28
25783 32226 32229 28
25784 32226 32230 28
25785 32231 32232 28
25786 32231 32233 28
25787 32231 32234 28
25788 32231 32235 28
25789 32236 32237 28
25790 32236 32238 28
25791 32236 32239 28
25792 32236 32240 28
25793 32241 32242 28
25794 32241 32243 28
25795 32241 32244 28
25796 32241 32245 28
25797 32246 32247 28
25798 32246 32248 28
25799 32246 32249 28
25800 32246 32250 28
25801 32251 32252 28
25802 32251 32253 28
25803 32251 32254 28
25804 32251 32255 28
25805 32256 32257 28
25806 32256 32258 28
25807 32256 32259 28
25808 32256 32260 28
25809 32261 32262 28
25810 32261 32263 28
25811 32261 32264 28
25812 32261 32265 28
25813 32266 32267 28
25814 32266 32268 28
25815 32266 32269 28
25816 32266 32270 28
25817 32271 32272 28
25818 32271 32273 28
25819 32271 32274 28
25820 32271 32275 28
25821 32276 32277 28
25822 32276 32278 28
25823 32276 32279 28
25824 32276 32280 28
25825 32281 32282 28
25826 32281 32283 28
25827 32281 32284 28
25828 32281 32285 28
25829 32286 32287 28
25830 32286 32288 28
25831 32286 32289 28
25832 32286 32290 28
25833 32291 32292 28
25834 32291 32293 28
25835 32291 32294 28
25836 32291 32295 28
25837 32296 32297 28
25838 32296 32298 28
25839 32296 32299 28
25840 32296 32300 28
25841 32301 32302 28
25842 32301 32303 28
25843 32301 32304 28
25844 32301 32305 28
25845 32306 32307 28
25846 32306 32308 28
25847 32306 32309 28
25848 32306 32310 28
25849 32311 32312 28
25850 32311 32313 28
25851 32311 32314 28
25852 32311 32315 28
25853 32316 32317 28
25854 32316 32318 28
25855 32316 32319 28
25856 32316 32320 28
25857 32321 32322 28
25858 32321 32323 28
25859 32321 32324 28
25860 32321 32325 28
25861 32326 32327 28
25862 32326 32328 28
25863 32326 32329 28
25864 32326 32330 28
25865 32331 32332 28
25866 32331 32333 28
25867 32331 32334 28
25868 32331 32335 28
25869 32336 32337 28
25870 32336 32338 28
25871 32336 32339 28
25872 32336 32340 28
25873 32341 32342 28
25874 32341 32343 28
25875 32341 32344 28
25876 32341 32345 28
25877 32346 32347 28
25878 32346 32348 28
25879 32346 32349 28
25880 32346 32350 28
25881 32351 32352 28
25882 32351 32353 28
25883 32351 32354 28
25884 32351 32355 28
25885 32356 32357 28
25886 32356 32358 28
25887 32356 32359 28
25888 32356 32360 28
25889 32361 32362 28
25890 32361 32363 28
25891 32361 32364 28
25892 32361 32365 28
25893 32366 32367 28
25894 32366 32368 28
25895 32366 32369 28
25896 32366 32370 28
25897 32371 32372 28
25898 32371 32373 28
25899 32371 32374 28
25900 32371 32375 28
25901 32376 32377 28
25902 32376 32378 28
25903 32376 32379 28
25904 32376 32380 28
25905 32381 32382 28
25906 32381 32383 28
25907 32381 32384 28
25908 32381 32385 28
25909 32386 32387 28
25910 32386 32388 28
25911 32386 32389 28
25912 32386 32390 28
25913 32391 32392 28
25914 32391 32393 28
25915 32391 32394 28
25916 32391 32395 28
25917 32396 32397 28
25918 32396 32398 28
25919 32396 32399 28
25920 32396 32400 28
25921 32401 32402 28
25922 32401 32403 28
25923 32401 32404 28
25924 32401 32405 28
25925 32406 32407 28
25926 32406 32408 28
25927 32406 32409 28
25928 32406 32410 28
25929 32411 32412 28
25930 32411 32413 28
25931 32411 32414 28
25932 32411 32415 28
25933 32416 32417 28
25934 32416 32418 28
25935 32416 32419 28
25936 32416 32420 28
25937 32421 32422 28
25938 32421 32423 28
25939 32421 32424 28
25940 32421 32425 28
25941 32426 32427 28
25942 32426 32428 28
25943 32426 32429 28
25944 32426 32430 28
25945 32431 32432 28
25946 32431 32433 28
25947 32431 32434 28
25948 32431 32435 28
25949 32436 32437 28
25950 32436 32438 28
25951 32436 32439 28
25952 32436 32440 28
25953 32441 32442 28
25954 32441 32443 28
25955 32441 32444 28
25956 32441 32445 28
25957 32446 32447 28
25958 32446 32448 28
25959 32446 32449 28
25960 32446 32450 28
25961 32451 32452 28
25962 32451 32453 28
25963 32451 32454 28
25964 32451 32455 28
25965 32456 32457 28
25966 32456 32458 28
25967 32456 32459 28
25968 32456 32460 28
25969 32461 32462 28
25970 32461 32463 28
25971 32461 32464 28
25972 32461 32465 28
25973 32466 32467 28
25974 32466 32468 28
25975 32466 32469 28
25976 32466 32470 28
25977 32471 32472 28
25978 32471 32473 28
25979 32471 32474 28
25980 32471 32475 28
25981 32476 32477 28
25982 32476 32478 28
25983 32476 32479 28
25984 32476 32480 28
25985 32481 32482 28
25986 32481 32483 28
25987 32481 32484 28
25988 32481 32485 28
25989 32486 32487 28
25990 32486 32488 28
25991 32486 32489 28
25992 32486 32490 28
25993 32491 32492 28
25994 32491 32493 28
25995 32491 32494 28
25996 32491 32495 28
25997 32496 32497 28
25998 32496 32498 28
25999 32496 32499 28
26000 32496 32500 28
26001 32501 32502 28
26002 32501 32503 28
26003 32501 32504 28
26004 32501 32505 28
26005 32506 32507 28
26006 32506 32508 28
26007 32506 32509 28
26008 32506 32510 28
26009 32511 32512 28
26010 32511 32513 28
26011 32511 32514 28
26012 32511 32515 28
26013 32516 32517 28
26014 32516 32518 28
26015 32516 32519 28
26016 32516 32520 28
26017 32521 32522 28
26018 32521 32523 28
26019 32521 32524 28
26020 32521 32525 28
26021 32526 32527 28
26022 32526 32528 28
26023 32526 32529 28
26024 32526 32530 28
26025 32531 32532 28
26026 32531 32533 28
26027 32531 32534 28
26028 32531 32535 28
26029 32536 32537 28
26030 32536 32538 28
26031 32536 32539 28
26032 32536 32540 28
26033 32541 32542 28
26034 32541 32543 28
26035 32541 32544 28
26036 32541 32545 28
26037 32546 32547 28
26038 32546 32548 28
26039 32546 32549 28
26040 32546 32550 28
26041 32551 32552 28
26042 32551 32553 28
26043 32551 32554 28
26044 32551 32555 28
26045 32556 32557 28
26046 32556 32558 28
26047 32556 32559 28
26048 32556 32560 28
26049 32561 32562 28
26050 32561 32563 28
26051 32561 32564 28
26052 32561 32565 28
26053 32566 32567 28
26054 32566 32568 28
26055 32566 32569 28
26056 32566 32570 28
26057 32571 32572 28
26058 32571 32573 28
26059 32571 32574 28
26060 32571 32575 28
26061 32576 32577 28
26062 32576 32578 28
26063 32576 32579 28
26064 32576 32580 28
26065 32581 32582 28
26066 32581 32583 28
26067 32581 32584 28
26068 32581 32585 28
26069 32586 32587 28
26070 32586 32588 28
26071 32586 32589 28
26072 32586 32590 28
26073 32591 32592 28
26074 32591 32593 28
26075 32591 32594 28
26076 32591 32595 28
26077 32596 32597 28
26078 32596 32598 28
26079 32596 32599 28
26080 32596 32600 28
26081 32601 32602 28
26082 32601 32603 28
26083 32601 32604 28
26084 32601 32605 28
26085 32606 32607 28
26086 32606 32608 28
26087 32606 32609 28
26088 32606 32610 28
26089 32611 32612 28
26090 32611 32613 28
26091 32611 32614 28
26092 32611 32615 28
26093 32616 32617 28
26094 32616 32618 28
26095 32616 32619 28
26096 32616 32620 28
26097 32621 32622 28
26098 32621 32623 28
26099 32621 32624 28
26100 32621 32625 28
26101 32626 32627 28
26102 32626 32628 28
26103 32626 32629 28
26104 32626 32630 28
26105 32631 32632 28
26106 32631 32633 28
26107 32631 32634 28
26108 32631 32635 28
26109 32636 32637 28
26110 32636 32638 28
26111 32636 32639 28
26112 32636 32640 28
26113 32641 32642 28
26114 32641 32643 28
26115 32641 32644 28
26116 32641 32645 28
26117 32646 32647 28
26118 32646 32648 28
26119 32646 32649 28
26120 32646 32650 28
26121 32651 32652 28
26122 32651 32653 28
26123 32651 32654 28
26124 32651 32655 28
26125 32656 32657 28
26126 32656 32658 28
26127 32656 32659 28
26128 32656 32660 28
26129 32661 32662 28
26130 32661 32663 28
26131 32661 32664 28
26132 32661 32665 28
26133 32666 32667 28
26134 32666 32668 28
26135 32666 32669 28
26136 32666 32670 28
26137 32671 32672 28
26138 32671 32673 28
26139 32671 32674 28
26140 32671 32675 28
26141 32676 32677 28
26142 32676 32678 28
26143 32676 32679 28
26144 32676 32680 28
26145 32681 32682 28
26146 32681 32683 28
26147 32681 32684 28
26148 32681 32685 28
26149 32686 32687 28
26150 32686 32688 28
26151 32686 32689 28
26152 32686 32690 28
26153 32691 32692 28
26154 32691 32693 28
26155 32691 32694 28
26156 32691 32695 28
26157 32696 32697 28
26158 32696 32698 28
26159 32696 32699 28
26160 32696 32700 28
26161 32701 32702 28
26162 32701 32703 28
26163 32701 32704 28
26164 32701 32705 28
26165 32706 32707 28
26166 32706 32708 28
26167 32706 32709 28
26168 32706 32710 28
26169 32711 32712 28
26170 32711 32713 28
26171 32711 32714 28
26172 32711 32715 28
26173 32716 32717 28
26174 32716 32718 28
26175 32716 32719 28
26176 32716 32720 28
26177 32721 32722 28
26178 32721 32723 28
26179 32721 32724 28
26180 32721 32725 28
26181 32726 32727 28
26182 32726 32728 28
26183 32726 32729 28
26184 32726 32730 28
26185 32731 32732 28
26186 32731 32733 28
26187 32731 32734 28
26188 32731 32735 28
26189 32736 32737 28
26190 32736 32738 28
26191 32736 32739 28
26192 32736 32740 28
26193 32741 32742 28
26194 32741 32743 28
26195 32741 32744 28
26196 32741 32745 28
26197 32746 32747 28
26198 32746 32748 28
26199 32746 32749 28
26200 32746 32750 28
26201 32751 32752 28
26202 32751 32753 28
26203 32751 32754 28
26204 32751 32755 28
26205 32756 32757 28
26206 32756 32758 28
26207 32756 32759 28
26208 32756 32760 28
26209 32761 32762 28
26210 32761 32763 28
26211 32761 32764 28
26212 32761 32765 28
26213 32766 32767 28
26214 32766 32768 28
26215 32766 32769 28
26216 32766 32770 28
26217 32771 32772 28
26218 32771 32773 28
26219 32771 32774 28
26220 32771 32775 28
26221 32776 32777 28
26222 32776 32778 28
26223 32776 32779 28
26224 32776 32780 28
26225 32781 32782 28
26226 32781 32783 28
26227 32781 32784 28
26228 32781 32785 28
26229 32786 32787 28
26230 32786 32788 28
26231 32786 32789 28
26232 32786 32790 28
26233 32791 32792 28
26234 32791 32793 28
26235 32791 32794 28
26236 32791 32795 28
26237 32796 32797 28
26238 32796 32798 28
26239 32796 32799 28
26240 32796 32800 28
26241 32801 32802 28
26242 32801 32803 28
26243 32801 32804 28
26244 32801 32805 28
26245 32806 32807 28
26246 32806 32808 28
26247 32806 32809 28
26248 32806 32810 28
26249 32811 32812 28
26250 32811 32813 28
26251 32811 32814 28
26252 32811 32815 28
26253 32816 32817 28
26254 32816 32818 28
26255 32816 32819 28
26256 32816 32820 28
26257 32821 32822 28
26258 32821 32823 28
26259 32821 32824 28
26260 32821 32825 28
26261 32826 32827 28
26262 32826 32828 28
26263 32826 32829 28
26264 32826 32830 28
26265 32831 32832 28
26266 32831 32833 28
26267 32831 32834 28
26268 32831 32835 28
26269 32836 32837 28
26270 32836 32838 28
26271 32836 32839 28
26272 32836 32840 28
26273 32841 32842 28
26274 32841 32843 28
26275 32841 32844 28
26276 32841 32845 28
26277 32846 32847 28
26278 32846 32848 28
26279 32846 32849 28
26280 32846 32850 28
26281 32851 32852 28
26282 32851 32853 28
26283 32851 32854 28
26284 32851 32855 28
26285 32856 32857 28
26286 32856 32858 28
26287 32856 32859 28
26288 32856 32860 28
26289 32861 32862 28
26290 32861 32863 28
26291 32861 32864 28
26292 32861 32865 28
26293 32866 32867 28
26294 32866 32868 28
26295 32866 32869 28
26296 32866 32870 28
26297 32871 32872 28
26298 32871 32873 28
26299 32871 32874 28
26300 32871 32875 28
26301 32876 32877 28
26302 32876 32878 28
26303 32876 32879 28
26304 32876 32880 28
26305 32881 32882 28
26306 32881 32883 28
26307 32881 32884 28
26308 32881 32885 28
26309 32886 32887 28
26310 32886 32888 28
26311 32886 32889 28
26312 32886 32890 28
26313 32891 32892 28
26314 32891 32893 28
26315 32891 32894 28
26316 32891 32895 28
26317 32896 32897 28
26318 32896 32898 28
26319 32896 32899 28
26320 32896 32900 28
26321 32901 32902 28
26322 32901 32903 28
26323 32901 32904 28
26324 32901 32905 28
26325 32906 32907 28
26326 32906 32908 28
26327 32906 32909 28
26328 32906 32910 28
26329 32911 32912 28
26330 32911 32913 28
26331 32911 32914 28
26332 32911 32915 28
26333 32916 32917 28
26334 32916 32918 28
26335 32916 32919 28
26336 32916 32920 28
26337 32921 32922 28
26338 32921 32923 28
26339 32921 32924 28
26340 32921 32925 28
26341 32926 32927 28
26342 32926 32928 28
26343 32926 32929 28
26344 32926 32930 28
26345 32931 32932 28
26346 32931 32933 28
26347 32931 32934 28
26348 32931 32935 28
26349 32936 32937 28
26350 32936 32938 28
26351 32936 32939 28
26352 32936 32940 28
26353 32941 32942 28
26354 32941 32943 28
26355 32941 32944 28
26356 32941 32945 28
26357 32946 32947 28
26358 32946 32948 28
26359 32946 32949 28
26360 32946 32950 28
26361 32951 32952 28
26362 32951 32953 28
26363 32951 32954 28
26364 32951 32955 28
26365 32956 32957 28
26366 32956 32958 28
26367 32956 32959 28
26368 32956 32960 28
26369 32961 32962 28
26370 32961 32963 28
26371 32961 32964 28
26372 32961 32965 28
26373 32966 32967 28
26374 32966 32968 28
26375 32966 32969 28
26376 32966 32970 28
26377 32971 32972 28
26378 32971 32973 28
26379 32971 32974 28
26380 32971 32975 28
26381 32976 32977 28
26382 32976 32978 28
26383 32976 32979 28
26384 32976 32980 28
26385 32981 32982 28
26386 32981 32983 28
26387 32981 32984 28
26388 32981 32985 28
26389 32986 32987 28
26390 32986 32988 28
26391 32986 32989 28
26392 32986 32990 28
26393 32991 32992 28
26394 32991 32993 28
26395 32991 32994 28
26396 32991 32995 28
26397 32996 32997 28
26398 32996 32998 28
26399 32996 32999 28
26400 32996 33000 28
26401 33001 33002 28
26402 33001 33003 28
26403 33001 33004 28
26404 33001 33005 28
26405 33006 33007 28
26406 33006 33008 28
26407 33006 33009 28
26408 33006 33010 28
26409 33011 33012 28
26410 33011 33013 28
26411 33011 33014 28
26412 33011 33015 28
26413 33016 33017 28
26414 33016 33018 28
26415 33016 33019 28
26416 33016 33020 28
26417 33021 33022 28
26418 33021 33023 28
26419 33021 33024 28
26420 33021 33025 28
26421 33026 33027 28
26422 33026 33028 28
26423 33026 33029 28
26424 33026 33030 28
26425 33031 33032 28
26426 33031 33033 28
26427 33031 33034 28
26428 33031 33035 28
26429 33036 33037 28
26430 33036 33038 28
26431 33036 33039 28
26432 33036 33040 28
26433 33041 33042 28
26434 33041 33043 28
26435 33041 33044 28
26436 33041 33045 28
26437 33046 33047 28
26438 33046 33048 28
26439 33046 33049 28
26440 33046 33050 28
26441 33051 33052 28
26442 33051 33053 28
26443 33051 33054 28
26444 33051 33055 28
26445 33056 33057 28
26446 33056 33058 28
26447 33056 33059 28
26448 33056 33060 28
26449 33061 33062 28
26450 33061 33063 28
26451 33061 33064 28
26452 33061 33065 28
26453 33066 33067 28
26454 33066 33068 28
26455 33066 33069 28
26456 33066 33070 28
26457 33071 33072 28
26458 33071 33073 28
26459 33071 33074 28
26460 33071 33075 28
26461 33076 33077 28
26462 33076 33078 28
26463 33076 33079 28
26464 33076 33080 28
26465 33081 33082 28
26466 33081 33083 28
26467 33081 33084 28
26468 33081 33085 28
26469 33086 33087 28
26470 33086 33088 28
26471 33086 33089 28
26472 33086 33090 28
26473 33091 33092 28
26474 33091 33093 28
26475 33091 33094 28
26476 33091 33095 28
26477 33096 33097 28
26478 33096 33098 28
26479 33096 33099 28
26480 33096 33100 28
26481 33101 33102 28
26482 33101 33103 28
26483 33101 33104 28
26484 33101 33105 28
26485 33106 33107 28
26486 33106 33108 28
26487 33106 33109 28
26488 33106 33110 28
26489 33111 33112 28
26490 33111 33113 28
26491 33111 33114 28
26492 33111 33115 28
26493 33116 33117 28
26494 33116 33118 28
26495 33116 33119 28
26496 33116 33120 28
26497 33121 33122 28
26498 33121 33123 28
26499 33121 33124 28
26500 33121 33125 28
26501 33126 33127 28
26502 33126 33128 28
26503 33126 33129 28
26504 33126 33130 28
26505 33131 33132 28
26506 33131 33133 28
26507 33131 33134 28
26508 33131 33135 28
26509 33136 33137 28
26510 33136 33138 28
26511 33136 33139 28
26512 33136 33140 28
26513 33141 33142 28
26514 33141 33143 28
26515 33141 33144 28
26516 33141 33145 28
26517 33146 33147 28
26518 33146 33148 28
26519 33146 33149 28
26520 33146 33150 28
26521 33151 33152 28
26522 33151 33153 28
26523 33151 33154 28
26524 33151 33155 28
26525 33156 33157 28
26526 33156 33158 28
26527 33156 33159 28
26528 33156 33160 28
26529 33161 33162 28
26530 33161 33163 28
26531 33161 33164 28
26532 33161 33165 28
26533 33166 33167 28
26534 33166 33168 28
26535 33166 33169 28
26536 33166 33170 28
26537 33171 33172 28
26538 33171 33173 28
26539 33171 33174 28
26540 33171 33175 28
26541 33176 33177 28
26542 33176 33178 28
26543 33176 33179 28
26544 33176 33180 28
26545 33181 33182 28
26546 33181 33183 28
26547 33181 33184 28
26548 33181 33185 28
26549 33186 33187 28
26550 33186 33188 28
26551 33186 33189 28
26552 33186 33190 28
26553 33191 33192 28
26554 33191 33193 28
26555 33191 33194 28
26556 33191 33195 28
26557 33196 33197 28
26558 33196 33198 28
26559 33196 33199 28
26560 33196 33200 28
26561 33201 33202 28
26562 33201 33203 28
26563 33201 33204 28
26564 33201 33205 28
26565 33206 33207 28
26566 33206 33208 28
26567 33206 33209 28
26568 33206 33210 28
26569 33211 33212 28
26570 33211 33213 28
26571 33211 33214 28
26572 33211 33215 28
26573 33216 33217 28
26574 33216 33218 28
26575 33216 33219 28
26576 33216 33220 28
26577 33221 33222 28
26578 33221 33223 28
26579 33221 33224 28
26580 33221 33225 28
26581 33226 33227 28
26582 33226 33228 28
26583 33226 33229 28
26584 33226 33230 28
26585 33231 33232 28
26586 33231 33233 28
26587 33231 33234 28
26588 33231 33235 28
26589 33236 33237 28
26590 33236 33238 28
26591 33236 33239 28
26592 33236 33240 28
26593 33241 33242 28
26594 33241 33243 28
26595 33241 33244 28
26596 33241 33245 28
26597 33246 33247 28
26598 33246 33248 28
26599 33246 33249 28
26600 33246 33250 28
26601 33251 33252 28
26602 33251 33253 28
26603 33251 33254 28
26604 33251 33255 28
26605 33256 33257 28
26606 33256 33258 28
26607 33256 33259 28
26608 33256 33260 28
26609 33261 33262 28
26610 33261 33263 28
26611 33261 33264 28
26612 33261 33265 28
26613 33266 33267 28
26614 33266 33268 28
26615 33266 33269 28
26616 33266 33270 28
26617 33271 33272 28
26618 33271 33273 28
26619 33271 33274 28
26620 33271 33275 28
26621 33276 33277 28
26622 33276 33278 28
26623 33276 33279 28
26624 33276 33280 28
26625 33281 33282 28
26626 33281 33283 28
26627 33281 33284 28
26628 33281 33285 28
26629 33286 33287 28
26630 33286 33288 28
26631 33286 33289 28
26632 33286 33290 28
26633 33291 33292 28
26634 33291 33293 28
26635 33291 33294 28
26636 33291 33295 28
26637 33296 33297 28
26638 33296 33298 28
26639 33296 33299 28
26640 33296 33300 28
26641 33301 33302 28
26642 33301 33303 28
26643 33301 33304 28
26644 33301 33305 28
26645 33306 33307 28
26646 33306 33308 28
26647 33306 33309 28
26648 33306 33310 28
26649 33311 33312 28
26650 33311 33313 28
26651 33311 33314 28
26652 33311 33315 28
26653 33316 33317 28
26654 33316 33318 28
26655 33316 33319 28
26656 33316 33320 28
26657 33321 33322 28
26658 33321 33323 28
26659 33321 33324 28
26660 33321 33325 28
26661 33326 33327 28
26662 33326 33328 28
26663 33326 33329 28
26664 33326 33330 28
26665 33331 33332 28
26666 33331 33333 28
26667 33331 33334 28
26668 33331 33335 28
26669 33336 33337 28
26670 33336 33338 28
26671 33336 33339 28
26672 33336 33340 28
26673 33341 33342 28
26674 33341 33343 28
26675 33341 33344 28
26676 33341 33345 28
26677 33346 33347 28
26678 33346 33348 28
26679 33346 33349 28
26680 33346 33350 28
26681 33351 33352 28
26682 33351 33353 28
26683 33351 33354 28
26684 33351 33355 28
26685 33356 33357 28
26686 33356 33358 28
26687 33356 33359 28
26688 33356 33360 28
26689 33361 33362 28
26690 33361 33363 28
26691 33361 33364 28
26692 33361 33365 28
26693 33366 33367 28
26694 33366 33368 28
26695 33366 33369 28
26696 33366 33370 28
26697 33371 33372 28
26698 33371 33373 28
26699 33371 33374 28
26700 33371 33375 28
26701 33376 33377 28
26702 33376 33378 28
26703 33376 33379 28
26704 33376 33380 28
26705 33381 33382 28
26706 33381 33383 28
26707 33381 33384 28
26708 33381 33385 28
26709 33386 33387 28
26710 33386 33388 28
26711 33386 33389 28
26712 33386 33390 28
26713 33391 33392 28
26714 33391 33393 28
26715 33391 33394 28
26716 33391 33395 28
26717 33396 33397 28
26718 33396 33398 28
26719 33396 33399 28
26720 33396 33400 28
26721 33401 33402 28
26722 33401 33403 28
26723 33401 33404 28
26724 33401 33405 28
26725 33406 33407 28
26726 33406 33408 28
26727 33406 33409 28
26728 33406 33410 28
26729 33411 33412 28
26730 33411 33413 28
26731 33411 33414 28
26732 33411 33415 28
26733 33416 33417 28
26734 33416 33418 28
26735 33416 33419 28
26736 33416 33420 28
26737 33421 33422 28
26738 33421 33423 28
26739 33421 33424 28
26740 33421 33425 28
26741 33426 33427 28
26742 33426 33428 28
26743 33426 33429 28
26744 33426 33430 28
26745 33431 33432 28
26746 33431 33433 28
26747 33431 33434 28
26748 33431 33435 28
26749 33436 33437 28
26750 33436 33438 28
26751 33436 33439 28
26752 33436 33440 28
26753 33441 33442 28
26754 33441 33443 28
26755 33441 33444 28
26756 33441 33445 28
26757 33446 33447 28
26758 33446 33448 28
26759 33446 33449 28
26760 33446 33450 28
26761 33451 33452 28
26762 33451 33453 28
26763 33451 33454 28
26764 33451 33455 28
26765 33456 33457 28
26766 33456 33458 28
26767 33456 33459 28
26768 33456 33460 28
26769 33461 33462 28
26770 33461 33463 28
26771 33461 33464 28
26772 33461 33465 28
26773 33466 33467 28
26774 33466 33468 28
26775 33466 33469 28
26776 33466 33470 28
26777 33471 33472 28
26778 33471 33473 28
26779 33471 33474 28
26780 33471 33475 28
26781 33476 33477 28
26782 33476 33478 28
26783 33476 33479 28
26784 33476 33480 28
26785 33481 33482 28
26786 33481 33483 28
26787 33481 33484 28
26788 33481 33485 28
26789 33486 33487 28
26790 33486 33488 28
26791 33486 33489 28
26792 33486 33490 28
26793 33491 33492 28
26794 33491 33493 28
26795 33491 33494 28
26796 33491 33495 28
26797 33496 33497 28
26798 33496 33498 28
26799 33496 33499 28
26800 33496 33500 28
26801 33501 33502 28
26802 33501 33503 28
26803 33501 33504 28
26804 33501 33505 28
26805 33506 33507 28
26806 33506 33508 28
26807 33506 33509 28
26808 33506 33510 28
26809 33511 33512 28
26810 33511 33513 28
26811 33511 33514 28
26812 33511 33515 28
26813 33516 33517 28
26814 33516 33518 28
26815 33516 33519 28
26816 33516 33520 28
26817 33521 33522 28
26818 33521 33523 28
26819 33521 33524 28
26820 33521 33525 28
26821 33526 33527 28
26822 33526 33528 28
26823 33526 33529 28
26824 33526 33530 28
26825 33531 33532 28
26826 33531 33533 28
26827 33531 33534 28
26828 33531 33535 28
26829 33536 33537 28
26830 33536 33538 28
26831 33536 33539 28
26832 33536 33540 28
26833 33541 33542 28
26834 33541 33543 28
26835 33541 33544 28
26836 33541 33545 28
26837 33546 33547 28
26838 33546 33548 28
26839 33546 33549 28
26840 33546 33550 28
26841 33551 33552 28
26842 33551 33553 28
26843 33551 33554 28
26844 33551 33555 28
26845 33556 33557 28
26846 33556 33558 28
26847 33556 33559 28
26848 33556 33560 28
26849 33561 33562 28
26850 33561 33563 28
26851 33561 33564 28
26852 33561 33565 28
26853 33566 33567 28
26854 33566 33568 28
26855 33566 33569 28
26856 33566 33570 28
26857 33571 33572 28
26858 33571 33573 28
26859 33571 33574 28
26860 33571 33575 28
26861 33576 33577 28
26862 33576 33578 28
26863 33576 33579 28
26864 33576 33580 28
26865 33581 33582 28
26866 33581 33583 28
26867 33581 33584 28
26868 33581 33585 28
26869 33586 33587 28
26870 33586 33588 28
26871 33586 33589 28
26872 33586 33590 28
26873 33591 33592 28
26874 33591 33593 28
26875 33591 33594 28
26876 33591 33595 28
26877 33596 33597 28
26878 33596 33598 28
26879 33596 33599 28
26880 33596 33600 28
26881 33601 33602 28
26882 33601 33603 28
26883 33601 33604 28
26884 33601 33605 28
26885 33606 33607 28
26886 33606 33608 28
26887 33606 33609 28
26888 33606 33610 28
26889 33611 33612 28
26890 33611 33613 28
26891 33611 33614 28
26892 33611 33615 28
26893 33616 33617 28
26894 33616 33618 28
26895 33616 33619 28
26896 33616 33620 28
26897 33621 33622 28
26898 33621 33623 28
26899 33621 33624 28
26900 33621 33625 28
26901 33626 33627 28
26902 33626 33628 28
26903 33626 33629 28
26904 33626 33630 28
26905 33631 33632 28
26906 33631 33633 28
26907 33631 33634 28
26908 33631 33635 28
26909 33636 33637 28
26910 33636 33638 28
26911 33636 33639 28
26912 33636 33640 28
26913 33641 33642 28
26914 33641 33643 28
26915 33641 33644 28
26916 33641 33645 28
26917 33646 33647 28
26918 33646 33648 28
26919 33646 33649 28
26920 33646 33650 28
26921 33651 33652 28
26922 33651 33653 28
26923 33651 33654 28
26924 33651 33655 28
26925 33656 33657 28
26926 33656 33658 28
26927 33656 33659 28
26928 33656 33660 28
26929 33661 33662 28
26930 33661 33663 28
26931 33661 33664 28
26932 33661 33665 28
26933 33666 33667 28
26934 33666 33668 28
26935 33666 33669 28
26936 33666 33670 28
26937 33671 33672 28
26938 33671 33673 28
26939 33671 33674 28
26940 33671 33675 28
26941 33676 33677 28
26942 33676 33678 28
26943 33676 33679 28
26944 33676 33680 28
26945 33681 33682 28
26946 33681 33683 28
26947 33681 33684 28
26948 33681 33685 28
26949 33686 33687 28
26950 33686 33688 28
26951 33686 33689 28
26952 33686 33690 28
26953 33691 33692 28
26954 33691 33693 28
26955 33691 33694 28
26956 33691 33695 28
26957 33696 33697 28
26958 33696 33698 28
26959 33696 33699 28
26960 33696 33700 28
26961 33701 33702 28
26962 33701 33703 28
26963 33701 33704 28
26964 33701 33705 28
26965 33706 33707 28
26966 33706 33708 28
26967 33706 33709 28
26968 33706 33710 28
26969 33711 33712 28
26970 33711 33713 28
26971 33711 33714 28
26972 33711 33715 28
26973 33716 33717 28
26974 33716 33718 28
26975 33716 33719 28
26976 33716 33720 28
26977 33721 33722 28
26978 33721 33723 28
26979 33721 33724 28
26980 33721 33725 28
26981 33726 33727 28
26982 33726 33728 28
26983 33726 33729 28
26984 33726 33730 28
26985 33731 33732 28
26986 33731 33733 28
26987 33731 33734 28
26988 33731 33735 28
26989 33736 33737 28
26990 33736 33738 28
26991 33736 33739 28
26992 33736 33740 28
26993 33741 33742 28
26994 33741 33743 28
26995 33741 33744 28
26996 33741 33745 28
26997 33746 33747 28
26998 33746 33748 28
26999 33746 33749 28
27000 33746 33750 28
27001 33751 33752 28
27002 33751 33753 28
27003 33751 33754 28
27004 33751 33755 28
27005 33756 33757 28
27006 33756 33758 28
27007 33756 33759 28
27008 33756 33760 28
27009 33761 33762 28
27010 33761 33763 28
27011 33761 33764 28
27012 33761 33765 28
27013 33766 33767 28
27014 33766 33768 28
27015 33766 33769 28
27016 33766 33770 28
27017 33771 33772 28
27018 33771 33773 28
27019 33771 33774 28
27020 33771 33775 28
27021 33776 33777 28
27022 33776 33778 28
27023 33776 33779 28
27024 33776 33780 28
27025 33781 33782 28
27026 33781 33783 28
27027 33781 33784 28
27028 33781 33785 28
27029 33786 33787 28
27030 33786 33788 28
27031 33786 33789 28
27032 33786 33790 28
27033 33791 33792 28
27034 33791 33793 28
27035 33791 33794 28
27036 33791 33795 28
27037 33796 33797 28
27038 33796 33798 28
27039 33796 33799 28
27040 33796 33800 28
27041 33801 33802 28
27042 33801 33803 28
27043 33801 33804 28
27044 33801 33805 28
27045 33806 33807 28
27046 33806 33808 28
27047 33806 33809 28
27048 33806 33810 28
27049 33811 33812 28
27050 33811 33813 28
27051 33811 33814 28
27052 33811 33815 28
27053 33816 33817 28
27054 33816 33818 28
27055 33816 33819 28
27056 33816 33820 28
27057 33821 33822 28
27058 33821 33823 28
27059 33821 33824 28
27060 33821 33825 28
27061 33826 33827 28
27062 33826 33828 28
27063 33826 33829 28
27064 33826 33830 28
27065 33831 33832 28
27066 33831 33833 28
27067 33831 33834 28
27068 33831 33835 28
27069 33836 33837 28
27070 33836 33838 28
27071 33836 33839 28
27072 33836 33840 28
27073 33841 33842 28
27074 33841 33843 28
27075 33841 33844 28
27076 33841 33845 28
27077 33846 33847 28
27078 33846 33848 28
27079 33846 33849 28
27080 33846 33850 28
27081 33851 33852 28
27082 33851 33853 28
27083 33851 33854 28
27084 33851 33855 28
27085 33856 33857 28
27086 33856 33858 28
27087 33856 33859 28
27088 33856 33860 28
27089 33861 33862 28
27090 33861 33863 28
27091 33861 33864 28
27092 33861 33865 28
27093 33866 33867 28
27094 33866 33868 28
27095 33866 33869 28
27096 33866 33870 28
27097 33871 33872 28
27098 33871 33873 28
27099 33871 33874 28
27100 33871 33875 28
27101 33876 33877 28
27102 33876 33878 28
27103 33876 33879 28
27104 33876 33880 28
27105 33881 33882 28
27106 33881 33883 28
27107 33881 33884 28
27108 33881 33885 28
27109 33886 33887 28
27110 33886 33888 28
27111 33886 33889 28
27112 33886 33890 28
27113 33891 33892 28
27114 33891 33893 28
27115 33891 33894 28
27116 33891 33895 28
27117 33896 33897 28
27118 33896 33898 28
27119 33896 33899 28
27120 33896 33900 28
27121 33901 33902 28
27122 33901 33903 28
27123 33901 33904 28
27124 33901 33905 28
27125 33906 33907 28
27126 33906 33908 28
27127 33906 33909 28
27128 33906 33910 28
27129 33911 33912 28
27130 33911 33913 28
27131 33911 33914 28
27132 33911 33915 28
27133 33916 33917 28
27134 33916 33918 28
27135 33916 33919 28
27136 33916 33920 28
27137 33921 33922 28
27138 33921 33923 28
27139 33921 33924 28
27140 33921 33925 28
27141 33926 33927 28
27142 33926 33928 28
27143 33926 33929 28
27144 33926 33930 28
27145 33931 33932 28
27146 33931 33933 28
27147 33931 33934 28
27148 33931 33935 28
27149 33936 33937 28
27150 33936 33938 28
27151 33936 33939 28
27152 33936 33940 28
27153 33941 33942 28
27154 33941 33943 28
27155 33941 33944 28
27156 33941 33945 28
27157 33946 33947 28
27158 33946 33948 28
27159 33946 33949 28
27160 33946 33950 28
27161 33951 33952 28
27162 33951 33953 28
27163 33951 33954 28
27164 33951 33955 28
27165 33956 33957 28
27166 33956 33958 28
27167 33956 33959 28
27168 33956 33960 28
27169 33961 33962 28
27170 33961 33963 28
27171 33961 33964 28
27172 33961 33965 28
27173 33966 33967 28
27174 33966 33968 28
27175 33966 33969 28
27176 33966 33970 28
27177 33971 33972 28
27178 33971 33973 28
27179 33971 33974 28
27180 33971 33975 28
27181 33976 33977 28
27182 33976 33978 28
27183 33976 33979 28
27184 33976 33980 28
27185 33981 33982 28
27186 33981 33983 28
27187 33981 33984 28
27188 33981 33985 28
27189 33986 33987 28
27190 33986 33988 28
27191 33986 33989 28
27192 33986 33990 28
27193 33991 33992 28
27194 33991 33993 28
27195 33991 33994 28
27196 33991 33995 28
27197 33996 33997 28
27198 33996 33998 28
27199 33996 33999 28
27200 33996 34000 28
27201 34001 34002 28
27202 34001 34003 28
27203 34001 34004 28
27204 34001 34005 28
27205 34006 34007 28
27206 34006 34008 28
27207 34006 34009 28
27208 34006 34010 28
27209 34011 34012 28
27210 34011 34013 28
27211 34011 34014 28
27212 34011 34015 28
27213 34016 34017 28
27214 34016 34018 28
27215 34016 34019 28
27216 34016 34020 28
27217 34021 34022 28
27218 34021 34023 28
27219 34021 34024 28
27220 34021 34025 28
27221 34026 34027 28
27222 34026 34028 28
27223 34026 34029 28
27224 34026 34030 28
27225 34031 34032 28
27226 34031 34033 28
27227 34031 34034 28
27228 34031 34035 28
27229 34036 34037 28
27230 34036 34038 28
27231 34036 34039 28
27232 34036 34040 28
27233 34041 34042 28
27234 34041 34043 28
27235 34041 34044 28
27236 34041 34045 28
27237 34046 34047 28
27238 34046 34048 28
27239 34046 34049 28
27240 34046 34050 28
27241 34051 34052 28
27242 34051 34053 28
27243 34051 34054 28
27244 34051 34055 28
27245 34056 34057 28
27246 34056 34058 28
27247 34056 34059 28
27248 34056 34060 28
27249 34061 34062 28
27250 34061 34063 28
27251 34061 34064 28
27252 34061 34065 28
27253 34066 34067 28
27254 34066 34068 28
27255 34066 34069 28
27256 34066 34070 28
27257 34071 34072 28
27258 34071 34073 28
27259 34071 34074 28
27260 34071 34075 28
27261 34076 34077 28
27262 34076 34078 28
27263 34076 34079 28
27264 34076 34080 28
27265 34081 34082 28
27266 34081 34083 28
27267 34081 34084 28
27268 34081 34085 28
27269 34086 34087 28
27270 34086 34088 28
27271 34086 34089 28
27272 34086 34090 28
27273 34091 34092 28
27274 34091 34093 28
27275 34091 34094 28
27276 34091 34095 28
27277 34096 34097 28
27278 34096 34098 28
27279 34096 34099 28
27280 34096 34100 28
27281 34101 34102 28
27282 34101 34103 28
27283 34101 34104 28
27284 34101 34105 28
27285 34106 34107 28
27286 34106 34108 28
27287 34106 34109 28
27288 34106 34110 28
27289 34111 34112 28
27290 34111 34113 28
27291 34111 34114 28
27292 34111 34115 28
27293 34116 34117 28
27294 34116 34118 28
27295 34116 34119 28
27296 34116 34120 28
27297 34121 34122 28
27298 34121 34123 28
27299 34121 34124 28
27300 34121 34125 28
27301 34126 34127 28
27302 34126 34128 28
27303 34126 34129 28
27304 34126 34130 28
27305 34131 34132 28
27306 34131 34133 28
27307 34131 34134 28
27308 34131 34135 28
27309 34136 34137 28
27310 34136 34138 28
27311 34136 34139 28
27312 34136 34140 28
27313 34141 34142 28
27314 34141 34143 28
27315 34141 34144 28
27316 34141 34145 28
27317 34146 34147 28
27318 34146 34148 28
27319 34146 34149 28
27320 34146 34150 28
27321 34151 34152 28
27322 34151 34153 28
27323 34151 34154 28
27324 34151 34155 28
27325 34156 34157 28
27326 34156 34158 28
27327 34156 34159 28
27328 34156 34160 28
27329 34161 34162 28
27330 34161 34163 28
27331 34161 34164 28
27332 34161 34165 28
27333 34166 34167 28
27334 34166 34168 28
27335 34166 34169 28
27336 34166 34170 28
27337 34171 34172 28
27338 34171 34173 28
27339 34171 34174 28
27340 34171 34175 28
27341 34176 34177 28
27342 34176 34178 28
27343 34176 34179 28
27344 34176 34180 28
27345 34181 34182 28
27346 34181 34183 28
27347 34181 34184 28
27348 34181 34185 28
27349 34186 34187 28
27350 34186 34188 28
27351 34186 34189 28
27352 34186 34190 28
27353 34191 34192 28
27354 34191 34193 28
27355 34191 34194 28
27356 34191 34195 28
27357 34196 34197 28
27358 34196 34198 28
27359 34196 34199 28
27360 34196 34200 28
27361 34201 34202 28
27362 34201 34203 28
27363 34201 34204 28
27364 34201 34205 28
27365 34206 34207 28
27366 34206 34208 28
27367 34206 34209 28
27368 34206 34210 28
27369 34211 34212 28
27370 34211 34213 28
27371 34211 34214 28
27372 34211 34215 28
27373 34216 34217 28
27374 34216 34218 28
27375 34216 34219 28
27376 34216 34220 28
27377 34221 34222 28
27378 34221 34223 28
27379 34221 34224 28
27380 34221 34225 28
27381 34226 34227 28
27382 34226 34228 28
27383 34226 34229 28
27384 34226 34230 28
27385 34231 34232 28
27386 34231 34233 28
27387 34231 34234 28
27388 34231 34235 28
27389 34236 34237 28
27390 34236 34238 28
27391 34236 34239 28
27392 34236 34240 28
27393 34241 34242 28
27394 34241 34243 28
27395 34241 34244 28
27396 34241 34245 28
27397 34246 34247 28
27398 34246 34248 28
27399 34246 34249 28
27400 34246 34250 28
27401 34251 34252 28
27402 34251 34253 28
27403 34251 34254 28
27404 34251 34255 28
27405 34256 34257 28
27406 34256 34258 28
27407 34256 34259 28
27408 34256 34260 28
27409 34261 34262 28
27410 34261 34263 28
27411 34261 34264 28
27412 34261 34265 28
27413 34266 34267 28
27414 34266 34268 28
27415 34266 34269 28
27416 34266 34270 28
27417 34271 34272 28
27418 34271 34273 28
27419 34271 34274 28
27420 34271 34275 28
27421 34276 34277 28
27422 34276 34278 28
27423 34276 34279 28
27424 34276 34280 28
27425 34281 34282 28
27426 34281 34283 28
27427 34281 34284 28
27428 34281 34285 28
27429 34286 34287 28
27430 34286 34288 28
27431 34286 34289 28
27432 34286 34290 28
27433 34291 34292 28
27434 34291 34293 28
27435 34291 34294 28
27436 34291 34295 28
27437 34296 34297 28
27438 34296 34298 28
27439 34296 34299 28
27440 34296 34300 28
27441 34301 34302 28
27442 34301 34303 28
27443 34301 34304 28
27444 34301 34305 28
27445 34306 34307 28
27446 34306 34308 28
27447 34306 34309 28
27448 34306 34310 28
27449 34311 34312 28
27450 34311 34313 28
27451 34311 34314 28
27452 34311 34315 28
27453 34316 34317 28
27454 34316 34318 28
27455 34316 34319 28
27456 34316 34320 28
27457 34321 34322 28
27458 34321 34323 28
27459 34321 34324 28
27460 34321 34325 28
27461 34326 34327 28
27462 34326 34328 28
27463 34326 34329 28
27464 34326 34330 28
27465 34331 34332 28
27466 34331 34333 28
27467 34331 34334 28
27468 34331 34335 28
27469 34336 34337 28
27470 34336 34338 28
27471 34336 34339 28
27472 34336 34340 28
27473 34341 34342 28
27474 34341 34343 28
27475 34341 34344 28
27476 34341 34345 28
27477 34346 34347 28
27478 34346 34348 28
27479 34346 34349 28
27480 34346 34350 28
27481 34351 34352 28
27482 34351 34353 28
27483 34351 34354 28
27484 34351 34355 28
27485 34356 34357 28
27486 34356 34358 28
27487 34356 34359 28
27488 34356 34360 28
27489 34361 34362 28
27490 34361 34363 28
27491 34361 34364 28
27492 34361 34365 28
27493 34366 34367 28
27494 34366 34368 28
27495 34366 34369 28
27496 34366 34370 28
27497 34371 34372 28
27498 34371 34373 28
27499 34371 34374 28
27500 34371 34375 28
27501 34376 34377 28
27502 34376 34378 28
27503 34376 34379 28
27504 34376 34380 28
27505 34381 34382 28
27506 34381 34383 28
27507 34381 34384 28
27508 34381 34385 28
27509 34386 34387 28
27510 34386 34388 28
27511 34386 34389 28
27512 34386 34390 28
27513 34391 34392 28
27514 34391 34393 28
27515 34391 34394 28
27516 34391 34395 28
27517 34396 34397 28
27518 34396 34398 28
27519 34396 34399 28
27520 34396 34400 28
27521 34401 34402 28
27522 34401 34403 28
27523 34401 34404 28
27524 34401 34405 28
27525 34406 34407 28
27526 34406 34408 28
27527 34406 34409 28
27528 34406 34410 28
27529 34411 34412 28
27530 34411 34413 28
27531 34411 34414 28
27532 34411 34415 28
27533 34416 34417 28
27534 34416 34418 28
27535 34416 34419 28
27536 34416 34420 28
27537 34421 34422 28
27538 34421 34423 28
27539 34421 34424 28
27540 34421 34425 28
27541 34426 34427 28
27542 34426 34428 28
27543 34426 34429 28
27544 34426 34430 28
27545 34431 34432 28
27546 34431 34433 28
27547 34431 34434 28
27548 34431 34435 28
27549 34436 34437 28
27550 34436 34438 28
27551 34436 34439 28
27552 34436 34440 28
27553 34441 34442 28
27554 34441 34443 28
27555 34441 34444 28
27556 34441 34445 28
27557 34446 34447 28
27558 34446 34448 28
27559 34446 34449 28
27560 34446 34450 28
27561 34451 34452 28
27562 34451 34453 28
27563 34451 34454 28
27564 34451 34455 28
27565 34456 34457 28
27566 34456 34458 28
27567 34456 34459 28
27568 34456 34460 28
27569 34461 34462 28
27570 34461 34463 28
27571 34461 34464 28
27572 34461 34465 28
27573 34466 34467 28
27574 34466 34468 28
27575 34466 34469 28
27576 34466 34470 28
27577 34471 34472 28
27578 34471 34473 28
27579 34471 34474 28
27580 34471 34475 28
27581 34476 34477 28
27582 34476 34478 28
27583 34476 34479 28
27584 34476 34480 28
27585 34481 34482 28
27586 34481 34483 28
27587 34481 34484 28
27588 34481 34485 28
27589 34486 34487 28
27590 34486 34488 28
27591 34486 34489 28
27592 34486 34490 28
27593 34491 34492 28
27594 34491 34493 28
27595 34491 34494 28
27596 34491 34495 28
27597 34496 34497 28
27598 34496 34498 28
27599 34496 34499 28
27600 34496 34500 28
27601 34501 34502 28
27602 34501 34503 28
27603 34501 34504 28
27604 34501 34505 28
27605 34506 34507 28
27606 34506 34508 28
27607 34506 34509 28
27608 34506 34510 28
27609 34511 34512 28
27610 34511 34513 28
27611 34511 34514 28
27612 34511 34515 28
27613 34516 34517 28
27614 34516 34518 28
27615 34516 34519 28
27616 34516 34520 28
27617 34521 34522 28
27618 34521 34523 28
27619 34521 34524 28
27620 34521 34525 28
27621 34526 34527 28
27622 34526 34528 28
27623 34526 34529 28
27624 34526 34530 28
27625 34531 34532 28
27626 34531 34533 28
27627 34531 34534 28
27628 34531 34535 28
27629 34536 34537 28
27630 34536 34538 28
27631 34536 34539 28
27632 34536 34540 28
27633 34541 34542 28
27634 34541 34543 28
27635 34541 34544 28
27636 34541 34545 28
27637 34546 34547 28
27638 34546 34548 28
27639 34546 34549 28
27640 34546 34550 28
27641 34551 34552 28
27642 34551 34553 28
27643 34551 34554 28
27644 34551 34555 28
27645 34556 34557 28
27646 34556 34558 28
27647 34556 34559 28
27648 34556 34560 28
27649 34561 34562 28
27650 34561 34563 28
27651 34561 34564 28
27652 34561 34565 28
27653 34566 34567 28
27654 34566 34568 28
27655 34566 34569 28
27656 34566 34570 28
27657 34571 34572 28
27658 34571 34573 28
27659 34571 34574 28
27660 34571 34575 28
27661 34576 34577 28
27662 34576 34578 28
27663 34576 34579 28
27664 34576 34580 28
27665 34581 34582 28
27666 34581 34583 28
27667 34581 34584 28
27668 34581 34585 28
27669 34586 34587 28
27670 34586 34588 28
27671 34586 34589 28
27672 34586 34590 28
27673 34591 34592 28
27674 34591 34593 28
27675 34591 34594 28
27676 34591 34595 28
27677 34596 34597 28
27678 34596 34598 28
27679 34596 34599 28
27680 34596 34600 28
27681 34601 34602 28
27682 34601 34603 28
27683 34601 34604 28
27684 34601 34605 28
27685 34606 34607 28
27686 34606 34608 28
27687 34606 34609 28
27688 34606 34610 28
27689 34611 34612 28
27690 34611 34613 28
27691 34611 34614 28
27692 34611 34615 28
27693 34616 34617 28
27694 34616 34618 28
27695 34616 34619 28
27696 34616 34620 28
27697 34621 34622 28
27698 34621 34623 28
27699 34621 34624 28
27700 34621 34625 28
27701 34626 34627 28
27702 34626 34628 28
27703 34626 34629 28
27704 34626 34630 28
27705 34631 34632 28
27706 34631 34633 28
27707 34631 34634 28
27708 34631 34635 28
27709 34636 34637 28
27710 34636 34638 28
27711 34636 34639 28
27712 34636 34640 28
27713 34641 34642 28
27714 34641 34643 28
27715 34641 34644 28
27716 34641 34645 28
27717 34646 34647 28
27718 34646 34648 28
27719 34646 34649 28
27720 34646 34650 28
27721 34651 34652 28
27722 34651 34653 28
27723 34651 34654 28
27724 34651 34655 28
27725 34656 34657 28
27726 34656 34658 28
27727 34656 34659 28
27728 34656 34660 28
27729 34661 34662 28
27730 34661 34663 28
27731 34661 34664 28
27732 34661 34665 28
27733 34666 34667 28
27734 34666 34668 28
27735 34666 34669 28
27736 34666 34670 28
27737 34671 34672 28
27738 34671 34673 28
27739 34671 34674 28
27740 34671 34675 28
27741 34676 34677 28
27742 34676 34678 28
27743 34676 34679 28
27744 34676 34680 28
27745 34681 34682 28
27746 34681 34683 28
27747 34681 34684 28
27748 34681 34685 28
27749 34686 34687 28
27750 34686 34688 28
27751 34686 34689 28
27752 34686 34690 28
27753 34691 34692 28
27754 34691 34693 28
27755 34691 34694 28
27756 34691 34695 28
27757 34696 34697 28
27758 34696 34698 28
27759 34696 34699 28
27760 34696 34700 28
27761 34701 34702 28
27762 34701 34703 28
27763 34701 34704 28
27764 34701 34705 28
27765 34706 34707 28
27766 34706 34708 28
27767 34706 34709 28
27768 34706 34710 28
27769 34711 34712 28
27770 34711 34713 28
27771 34711 34714 28
27772 34711 34715 28
27773 34716 34717 28
27774 34716 34718 28
27775 34716 34719 28
27776 34716 34720 28
27777 34721 34722 28
27778 34721 34723 28
27779 34721 34724 28
27780 34721 34725 28
27781 34726 34727 28
27782 34726 34728 28
27783 34726 34729 28
27784 34726 34730 28
27785 34731 34732 28
27786 34731 34733 28
27787 34731 34734 28
27788 34731 34735 28
27789 34736 34737 28
27790 34736 34738 28
27791 34736 34739 28
27792 34736 34740 28
27793 34741 34742 28
27794 34741 34743 28
27795 34741 34744 28
27796 34741 34745 28
27797 34746 34747 28
27798 34746 34748 28
27799 34746 34749 28
27800 34746 34750 28
27801 34751 34752 28
27802 34751 34753 28
27803 34751 34754 28
27804 34751 34755 28
27805 34756 34757 28
27806 34756 34758 28
27807 34756 34759 28
27808 34756 34760 28
27809 34761 34762 28
27810 34761 34763 28
27811 34761 34764 28
27812 34761 34765 28
27813 34766 34767 28
27814 34766 34768 28
27815 34766 34769 28
27816 34766 34770 28
27817 34771 34772 28
27818 34771 34773 28
27819 34771 34774 28
27820 34771 34775 28
27821 34776 34777 28
27822 34776 34778 28
27823 34776 34779 28
27824 34776 34780 28
27825 34781 34782 28
27826 34781 34783 28
27827 34781 34784 28
27828 34781 34785 28
27829 34786 34787 28
27830 34786 34788 28
27831 34786 34789 28
27832 34786 34790 28
27833 34791 34792 28
27834 34791 34793 28
27835 34791 34794 28
27836 34791 34795 28
27837 34796 34797 28
27838 34796 34798 28
27839 34796 34799 28
27840 34796 34800 28
27841 34801 34802 28
27842 34801 34803 28
27843 34801 34804 28
27844 34801 34805 28
27845 34806 34807 28
27846 34806 34808 28
27847 34806 34809 28
27848 34806 34810 28
27849 34811 34812 28
27850 34811 34813 28
27851 34811 34814 28
27852 34811 34815 28
27853 34816 34817 28
27854 34816 34818 28
27855 34816 34819 28
27856 34816 34820 28
27857 34821 34822 28
27858 34821 34823 28
27859 34821 34824 28
27860 34821 34825 28
27861 34826 34827 28
27862 34826 34828 28
27863 34826 34829 28
27864 34826 34830 28
27865 34831 34832 28
27866 34831 34833 28
27867 34831 34834 28
27868 34831 34835 28
27869 34836 34837 28
27870 34836 34838 28
27871 34836 34839 28
27872 34836 34840 28
27873 34841 34842 28
27874 34841 34843 28
27875 34841 34844 28
27876 34841 34845 28
27877 34846 34847 28
27878 34846 34848 28
27879 34846 34849 28
27880 34846 34850 28
27881 34851 34852 28
27882 34851 34853 28
27883 34851 34854 28
27884 34851 34855 28
27885 34856 34857 28
27886 34856 34858 28
27887 34856 34859 28
27888 34856 34860 28
27889 34861 34862 28
27890 34861 34863 28
27891 34861 34864 28
27892 34861 34865 28
27893 34866 34867 28
27894 34866 34868 28
27895 34866 34869 28
27896 34866 34870 28
27897 34871 34872 28
27898 34871 34873 28
27899 34871 34874 28
27900 34871 34875 28
27901 34876 34877 28
27902 34876 34878 28
27903 34876 34879 28
27904 34876 34880 28
27905 34881 34882 28
27906 34881 34883 28
27907 34881 34884 28
27908 34881 34885 28
27909 34886 34887 28
27910 34886 34888 28
27911 34886 34889 28
27912 34886 34890 28
27913 34891 34892 28
27914 34891 34893 28
27915 34891 34894 28
27916 34891 34895 28
27917 34896 34897 28
27918 34896 34898 28
27919 34896 34899 28
27920 34896 34900 28
27921 34901 34902 28
27922 34901 34903 28
27923 34901 34904 28
27924 34901 34905 28
27925 34906 34907 28
27926 34906 34908 28
27927 34906 34909 28
27928 34906 34910 28
27929 34911 34912 28
27930 34911 34913 28
27931 34911 34914 28
27932 34911 34915 28
27933 34916 34917 28
27934 34916 34918 28
27935 34916 34919 28
27936 34916 34920 28
27937 34921 34922 28
27938 34921 34923 28
27939 34921 34924 28
27940 34921 34925 28
27941 34926 34927 28
27942 34926 34928 28
27943 34926 34929 28
27944 34926 34930 28
27945 34931 34932 28
27946 34931 34933 28
27947 34931 34934 28
27948 34931 34935 28
27949 34936 34937 28
27950 34936 34938 28
27951 34936 34939 28
27952 34936 34940 28
27953 34941 34942 28
27954 34941 34943 28
27955 34941 34944 28
27956 34941 34945 28
27957 34946 34947 28
27958 34946 34948 28
27959 34946 34949 28
27960 34946 34950 28
27961 34951 34952 28
27962 34951 34953 28
27963 34951 34954 28
27964 34951 34955 28
27965 34956 34957 28
27966 34956 34958 28
27967 34956 34959 28
27968 34956 34960 28
27969 34961 34962 28
27970 34961 34963 28
27971 34961 34964 28
27972 34961 34965 28
27973 34966 34967 28
27974 34966 34968 28
27975 34966 34969 28
27976 34966 34970 28
27977 34971 34972 28
27978 34971 34973 28
27979 34971 34974 28
27980 34971 34975 28
27981 34976 34977 28
27982 34976 34978 28
27983 34976 34979 28
27984 34976 34980 28
27985 34981 34982 28
27986 34981 34983 28
27987 34981 34984 28
27988 34981 34985 28
27989 34986 34987 28
27990 34986 34988 28
27991 34986 34989 28
27992 34986 34990 28
27993 34991 34992 28
27994 34991 34993 28
27995 34991 34994 28
27996 34991 34995 28
27997 34996 34997 28
27998 34996 34998 28
27999 34996 34999 28
28000 34996 35000 28
28001 35001 35002 28
28002 35001 35003 28
28003 35001 35004 28
28004 35001 35005 28
28005 35006 35007 28
28006 35006 35008 28
28007 35006 35009 28
28008 35006 35010 28
28009 35011 35012 28
28010 35011 35013 28
28011 35011 35014 28
28012 35011 35015 28
28013 35016 35017 28
28014 35016 35018 28
28015 35016 35019 28
28016 35016 35020 28
28017 35021 35022 28
28018 35021 35023 28
28019 35021 35024 28
28020 35021 35025 28
28021 35026 35027 28
28022 35026 35028 28
28023 35026 35029 28
28024 35026 35030 28
28025 35031 35032 28
28026 35031 35033 28
28027 35031 35034 28
28028 35031 35035 28
28029 35036 35037 28
28030 35036 35038 28
28031 35036 35039 28
28032 35036 35040 28
28033 35041 35042 28
28034 35041 35043 28
28035 35041 35044 28
28036 35041 35045 28
28037 35046 35047 28
28038 35046 35048 28
28039 35046 35049 28
28040 35046 35050 28
28041 35051 35052 28
28042 35051 35053 28
28043 35051 35054 28
28044 35051 35055 28
28045 35056 35057 28
28046 35056 35058 28
28047 35056 35059 28
28048 35056 35060 28
28049 35061 35062 28
28050 35061 35063 28
28051 35061 35064 28
28052 35061 35065 28
28053 35066 35067 28
28054 35066 35068 28
28055 35066 35069 28
28056 35066 35070 28
28057 35071 35072 28
28058 35071 35073 28
28059 35071 35074 28
28060 35071 35075 28
28061 35076 35077 28
28062 35076 35078 28
28063 35076 35079 28
28064 35076 35080 28
28065 35081 35082 28
28066 35081 35083 28
28067 35081 35084 28
28068 35081 35085 28
28069 35086 35087 28
28070 35086 35088 28
28071 35086 35089 28
28072 35086 35090 28
28073 35091 35092 28
28074 35091 35093 28
28075 35091 35094 28
28076 35091 35095 28
28077 35096 35097 28
28078 35096 35098 28
28079 35096 35099 28
28080 35096 35100 28
28081 35101 35102 28
28082 35101 35103 28
28083 35101 35104 28
28084 35101 35105 28
28085 35106 35107 28
28086 35106 35108 28
28087 35106 35109 28
28088 35106 35110 28
28089 35111 35112 28
28090 35111 35113 28
28091 35111 35114 28
28092 35111 35115 28
28093 35116 35117 28
28094 35116 35118 28
28095 35116 35119 28
28096 35116 35120 28
28097 35121 35122 28
28098 35121 35123 28
28099 35121 35124 28
28100 35121 35125 28
28101 35126 35127 28
28102 35126 35128 28
28103 35126 35129 28
28104 35126 35130 28
28105 35131 35132 28
28106 35131 35133 28
28107 35131 35134 28
28108 35131 35135 28
28109 35136 35137 28
28110 35136 35138 28
28111 35136 35139 28
28112 35136 35140 28
28113 35141 35142 28
28114 35141 35143 28
28115 35141 35144 28
28116 35141 35145 28
28117 35146 35147 28
28118 35146 35148 28
28119 35146 35149 28
28120 35146 35150 28
28121 35151 35152 28
28122 35151 35153 28
28123 35151 35154 28
28124 35151 35155 28
28125 35156 35157 28
28126 35156 35158 28
28127 35156 35159 28
28128 35156 35160 28
28129 35161 35162 28
28130 35161 35163 28
28131 35161 35164 28
28132 35161 35165 28
28133 35166 35167 28
28134 35166 35168 28
28135 35166 35169 28
28136 35166 35170 28
28137 35171 35172 28
28138 35171 35173 28
28139 35171 35174 28
28140 35171 35175 28
28141 35176 35177 28
28142 35176 35178 28
28143 35176 35179 28
28144 35176 35180 28
28145 35181 35182 28
28146 35181 35183 28
28147 35181 35184 28
28148 35181 35185 28
28149 35186 35187 28
28150 35186 35188 28
28151 35186 35189 28
28152 35186 35190 28
28153 35191 35192 28
28154 35191 35193 28
28155 35191 35194 28
28156 35191 35195 28
28157 35196 35197 28
28158 35196 35198 28
28159 35196 35199 28
28160 35196 35200 28
28161 35201 35202 28
28162 35201 35203 28
28163 35201 35204 28
28164 35201 35205 28
28165 35206 35207 28
28166 35206 35208 28
28167 35206 35209 28
28168 35206 35210 28
28169 35211 35212 28
28170 35211 35213 28
28171 35211 35214 28
28172 35211 35215 28
28173 35216 35217 28
28174 35216 35218 28
28175 35216 35219 28
28176 35216 35220 28
28177 35221 35222 28
28178 35221 35223 28
28179 35221 35224 28
28180 35221 35225 28
28181 35226 35227 28
28182 35226 35228 28
28183 35226 35229 28
28184 35226 35230 28
28185 35231 35232 28
28186 35231 35233 28
28187 35231 35234 28
28188 35231 35235 28
28189 35236 35237 28
28190 35236 35238 28
28191 35236 35239 28
28192 35236 35240 28
28193 35241 35242 28
28194 35241 35243 28
28195 35241 35244 28
28196 35241 35245 28
28197 35246 35247 28
28198 35246 35248 28
28199 35246 35249 28
28200 35246 35250 28
28201 35251 35252 28
28202 35251 35253 28
28203 35251 35254 28
28204 35251 35255 28
28205 35256 35257 28
28206 35256 35258 28
28207 35256 35259 28
28208 35256 35260 28
28209 35261 35262 28
28210 35261 35263 28
28211 35261 35264 28
28212 35261 35265 28
28213 35266 35267 28
28214 35266 35268 28
28215 35266 35269 28
28216 35266 35270 28
28217 35271 35272 28
28218 35271 35273 28
28219 35271 35274 28
28220 35271 35275 28
28221 35276 35277 28
28222 35276 35278 28
28223 35276 35279 28
28224 35276 35280 28
28225 35281 35282 28
28226 35281 35283 28
28227 35281 35284 28
28228 35281 35285 28
28229 35286 35287 28
28230 35286 35288 28
28231 35286 35289 28
28232 35286 35290 28
28233 35291 35292 28
28234 35291 35293 28
28235 35291 35294 28
28236 35291 35295 28
28237 35296 35297 28
28238 35296 35298 28
28239 35296 35299 28
28240 35296 35300 28
28241 35301 35302 28
28242 35301 35303 28
28243 35301 35304 28
28244 35301 35305 28
28245 35306 35307 28
28246 35306 35308 28
28247 35306 35309 28
28248 35306 35310 28
28249 35311 35312 28
28250 35311 35313 28
28251 35311 35314 28
28252 35311 35315 28
28253 35316 35317 28
28254 35316 35318 28
28255 35316 35319 28
28256 35316 35320 28
28257 35321 35322 28
28258 35321 35323 28
28259 35321 35324 28
28260 35321 35325 28
28261 35326 35327 28
28262 35326 35328 28
28263 35326 35329 28
28264 35326 35330 28
28265 35331 35332 28
28266 35331 35333 28
28267 35331 35334 28
28268 35331 35335 28
28269 35336 35337 28
28270 35336 35338 28
28271 35336 35339 28
28272 35336 35340 28
28273 35341 35342 28
28274 35341 35343 28
28275 35341 35344 28
28276 35341 35345 28
28277 35346 35347 28
28278 35346 35348 28
28279 35346 35349 28
28280 35346 35350 28
28281 35351 35352 28
28282 35351 35353 28
28283 35351 35354 28
28284 35351 35355 28
28285 35356 35357 28
28286 35356 35358 28
28287 35356 35359 28
28288 35356 35360 28
28289 35361 35362 28
28290 35361 35363 28
28291 35361 35364 28
28292 35361 35365 28
28293 35366 35367 28
28294 35366 35368 28
28295 35366 35369 28
28296 35366 35370 28
28297 35371 35372 28
28298 35371 35373 28
28299 35371 35374 28
28300 35371 35375 28
28301 35376 35377 28
28302 35376 35378 28
28303 35376 35379 28
28304 35376 35380 28
28305 35381 35382 28
28306 35381 35383 28
28307 35381 35384 28
28308 35381 35385 28
28309 35386 35387 28
28310 35386 35388 28
28311 35386 35389 28
28312 35386 35390 28
28313 35391 35392 28
28314 35391 35393 28
28315 35391 35394 28
28316 35391 35395 28
28317 35396 35397 28
28318 35396 35398 28
28319 35396 35399 28
28320 35396 35400 28
28321 35401 35402 28
28322 35401 35403 28
28323 35401 35404 28
28324 35401 35405 28
28325 35406 35407 28
28326 35406 35408 28
28327 35406 35409 28
28328 35406 35410 28
28329 35411 35412 28
28330 35411 35413 28
28331 35411 35414 28
28332 35411 35415 28
28333 35416 35417 28
28334 35416 35418 28
28335 35416 35419 28
28336 35416 35420 28
28337 35421 35422 28
28338 35421 35423 28
28339 35421 35424 28
28340 35421 35425 28
28341 35426 35427 28
28342 35426 35428 28
28343 35426 35429 28
28344 35426 35430 28
28345 35431 35432 28
28346 35431 35433 28
28347 35431 35434 28
28348 35431 35435 28
28349 35436 35437 28
28350 35436 35438 28
28351 35436 35439 28
28352 35436 35440 28
28353 35441 35442 28
28354 35441 35443 28
28355 35441 35444 28
28356 35441 35445 28
28357 35446 35447 28
28358 35446 35448 28
28359 35446 35449 28
28360 35446 35450 28
28361 35451 35452 28
28362 35451 35453 28
28363 35451 35454 28
28364 35451 35455 28
28365 35456 35457 28
28366 35456 35458 28
28367 35456 35459 28
28368 35456 35460 28
28369 35461 35462 28
28370 35461 35463 28
28371 35461 35464 28
28372 35461 35465 28
28373 35466 35467 28
28374 35466 35468 28
28375 35466 35469 28
28376 35466 35470 28
28377 35471 35472 28
28378 35471 35473 28
28379 35471 35474 28
28380 35471 35475 28
28381 35476 35477 28
28382 35476 35478 28
28383 35476 35479 28
28384 35476 35480 28
28385 35481 35482 28
28386 35481 35483 28
28387 35481 35484 28
28388 35481 35485 28
28389 35486 35487 28
28390 35486 35488 28
28391 35486 35489 28
28392 35486 35490 28
28393 35491 35492 28
28394 35491 35493 28
28395 35491 35494 28
28396 35491 35495 28
28397 35496 35497 28
28398 35496 35498 28
28399 35496 35499 28
28400 35496 35500 28
28401 35501 35502 28
28402 35501 35503 28
28403 35501 35504 28
28404 35501 35505 28
28405 35506 35507 28
28406 35506 35508 28
28407 35506 35509 28
28408 35506 35510 28
28409 35511 35512 28
28410 35511 35513 28
28411 35511 35514 28
28412 35511 35515 28
28413 35516 35517 28
28414 35516 35518 28
28415 35516 35519 28
28416 35516 35520 28
28417 35521 35522 28
28418 35521 35523 28
28419 35521 35524 28
28420 35521 35525 28
28421 35526 35527 28
28422 35526 35528 28
28423 35526 35529 28
28424 35526 35530 28
28425 35531 35532 28
28426 35531 35533 28
28427 35531 35534 28
28428 35531 35535 28
28429 35536 35537 28
28430 35536 35538 28
28431 35536 35539 28
28432 35536 35540 28
28433 35541 35542 28
28434 35541 35543 28
28435 35541 35544 28
28436 35541 35545 28
28437 35546 35547 28
28438 35546 35548 28
28439 35546 35549 28
28440 35546 35550 28
28441 35551 35552 28
28442 35551 35553 28
28443 35551 35554 28
28444 35551 35555 28
28445 35556 35557 28
28446 35556 35558 28
28447 35556 35559 28
28448 35556 35560 28
28449 35561 35562 28
28450 35561 35563 28
28451 35561 35564 28
28452 35561 35565 28
28453 35566 35567 28
28454 35566 35568 28
28455 35566 35569 28
28456 35566 35570 28
28457 35571 35572 28
28458 35571 35573 28
28459 35571 35574 28
28460 35571 35575 28
28461 35576 35577 28
28462 35576 35578 28
28463 35576 35579 28
28464 35576 35580 28
28465 35581 35582 28
28466 35581 35583 28
28467 35581 35584 28
28468 35581 35585 28
28469 35586 35587 28
28470 35586 35588 28
28471 35586 35589 28
28472 35586 35590 28
28473 35591 35592 28
28474 35591 35593 28
28475 35591 35594 28
28476 35591 35595 28
28477 35596 35597 28
28478 35596 35598 28
28479 35596 35599 28
28480 35596 35600 28
28481 35601 35602 28
28482 35601 35603 28
28483 35601 35604 28
28484 35601 35605 28
28485 35606 35607 28
28486 35606 35608 28
28487 35606 35609 28
28488 35606 35610 28
28489 35611 35612 28
28490 35611 35613 28
28491 35611 35614 28
28492 35611 35615 28
28493 35616 35617 28
28494 35616 35618 28
28495 35616 35619 28
28496 35616 35620 28
28497 35621 35622 28
28498 35621 35623 28
28499 35621 35624 28
28500 35621 35625 28
28501 35626 35627 28
28502 35626 35628 28
28503 35626 35629 28
28504 35626 35630 28
28505 35631 35632 28
28506 35631 35633 28
28507 35631 35634 28
28508 35631 35635 28
28509 35636 35637 28
28510 35636 35638 28
28511 35636 35639 28
28512 35636 35640 28
28513 35641 35642 28
28514 35641 35643 28
28515 35641 35644 28
28516 35641 35645 28
28517 35646 35647 28
28518 35646 35648 28
28519 35646 35649 28
28520 35646 35650 28
28521 35651 35652 28
28522 35651 35653 28
28523 35651 35654 28
28524 35651 35655 28
28525 35656 35657 28
28526 35656 35658 28
28527 35656 35659 28
28528 35656 35660 28
28529 35661 35662 28
28530 35661 35663 28
28531 35661 35664 28
28532 35661 35665 28
28533 35666 35667 28
28534 35666 35668 28
28535 35666 35669 28
28536 35666 35670 28
28537 35671 35672 28
28538 35671 35673 28
28539 35671 35674 28
28540 35671 35675 28
28541 35676 35677 28
28542 35676 35678 28
28543 35676 35679 28
28544 35676 35680 28
28545 35681 35682 28
28546 35681 35683 28
28547 35681 35684 28
28548 35681 35685 28
28549 35686 35687 28
28550 35686 35688 28
28551 35686 35689 28
28552 35686 35690 28
28553 35691 35692 28
28554 35691 35693 28
28555 35691 35694 28
28556 35691 35695 28
28557 35696 35697 28
28558 35696 35698 28
28559 35696 35699 28
28560 35696 35700 28
28561 35701 35702 28
28562 35701 35703 28
28563 35701 35704 28
28564 35701 35705 28
28565 35706 35707 28
28566 35706 35708 28
28567 35706 35709 28
28568 35706 35710 28
28569 35711 35712 28
28570 35711 35713 28
28571 35711 35714 28
28572 35711 35715 28
28573 35716 35717 28
28574 35716 35718 28
28575 35716 35719 28
28576 35716 35720 28
28577 35721 35722 28
28578 35721 35723 28
28579 35721 35724 28
28580 35721 35725 28
28581 35726 35727 28
28582 35726 35728 28
28583 35726 35729 28
28584 35726 35730 28
28585 35731 35732 28
28586 35731 35733 28
28587 35731 35734 28
28588 35731 35735 28
28589 35736 35737 28
28590 35736 35738 28
28591 35736 35739 28
28592 35736 35740 28
28593 35741 35742 28
28594 35741 35743 28
28595 35741 35744 28
28596 35741 35745 28
28597 35746 35747 28
28598 35746 35748 28
28599 35746 35749 28
28600 35746 35750 28
28601 35751 35752 28
28602 35751 35753 28
28603 35751 35754 28
28604 35751 35755 28
28605 35756 35757 28
28606 35756 35758 28
28607 35756 35759 28
28608 35756 35760 28
28609 35761 35762 28
28610 35761 35763 28
28611 35761 35764 28
28612 35761 35765 28
28613 35766 35767 28
28614 35766 35768 28
28615 35766 35769 28
28616 35766 35770 28
28617 35771 35772 28
28618 35771 35773 28
28619 35771 35774 28
28620 35771 35775 28
28621 35776 35777 28
28622 35776 35778 28
28623 35776 35779 28
28624 35776 35780 28
28625 35781 35782 28
28626 35781 35783 28
28627 35781 35784 28
28628 35781 35785 28
28629 35786 35787 28
28630 35786 35788 28
28631 35786 35789 28
28632 35786 35790 28
28633 35791 35792 28
28634 35791 35793 28
28635 35791 35794 28
28636 35791 35795 28
28637 35796 35797 28
28638 35796 35798 28
28639 35796 35799 28
28640 35796 35800 28
28641 35801 35802 28
28642 35801 35803 28
28643 35801 35804 28
28644 35801 35805 28
28645 35806 35807 28
28646 35806 35808 28
28647 35806 35809 28
28648 35806 35810 28
28649 35811 35812 28
28650 35811 35813 28
28651 35811 35814 28
28652 35811 35815 28
28653 35816 35817 28
28654 35816 35818 28
28655 35816 35819 28
28656 35816 35820 28
28657 35821 35822 28
28658 35821 35823 28
28659 35821 35824 28
28660 35821 35825 28
28661 35826 35827 28
28662 35826 35828 28
28663 35826 35829 28
28664 35826 35830 28
28665 35831 35832 28
28666 35831 35833 28
28667 35831 35834 28
28668 35831 35835 28
28669 35836 35837 28
28670 35836 35838 28
28671 35836 35839 28
28672 35836 35840 28
28673 35841 35842 28
28674 35841 35843 28
28675 35841 35844 28
28676 35841 35845 28
28677 35846 35847 28
28678 35846 35848 28
28679 35846 35849 28
28680 35846 35850 28
28681 35851 35852 28
28682 35851 35853 28
28683 35851 35854 28
28684 35851 35855 28
28685 35856 35857 28
28686 35856 35858 28
28687 35856 35859 28
28688 35856 35860 28
28689 35861 35862 28
28690 35861 35863 28
28691 35861 35864 28
28692 35861 35865 28
28693 35866 35867 28
28694 35866 35868 28
28695 35866 35869 28
28696 35866 35870 28
28697 35871 35872 28
28698 35871 35873 28
28699 35871 35874 28
28700 35871 35875 28
28701 35876 35877 28
28702 35876 35878 28
28703 35876 35879 28
28704 35876 35880 28
28705 35881 35882 28
28706 35881 35883 28
28707 35881 35884 28
28708 35881 35885 28
28709 35886 35887 28
28710 35886 35888 28
28711 35886 35889 28
28712 35886 35890 28
28713 35891 35892 28
28714 35891 35893 28
28715 35891 35894 28
28716 35891 35895 28
28717 35896 35897 28
28718 35896 35898 28
28719 35896 35899 28
28720 35896 35900 28
28721 35901 35902 28
28722 35901 35903 28
28723 35901 35904 28
28724 35901 35905 28
28725 35906 35907 28
28726 35906 35908 28
28727 35906 35909 28
28728 35906 35910 28
28729 35911 35912 28
28730 35911 35913 28
28731 35911 35914 28
28732 35911 35915 28
28733 35916 35917 28
28734 35916 35918 28
28735 35916 35919 28
28736 35916 35920 28
28737 35921 35922 28
28738 35921 35923 28
28739 35921 35924 28
28740 35921 35925 28
28741 35926 35927 28
28742 35926 35928 28
28743 35926 35929 28
28744 35926 35930 28
28745 35931 35932 28
28746 35931 35933 28
28747 35931 35934 28
28748 35931 35935 28
28749 35936 35937 28
28750 35936 35938 28
28751 35936 35939 28
28752 35936 35940 28
28753 35941 35942 28
28754 35941 35943 28
28755 35941 35944 28
28756 35941 35945 28
28757 35946 35947 28
28758 35946 35948 28
28759 35946 35949 28
28760 35946 35950 28
28761 35951 35952 28
28762 35951 35953 28
28763 35951 35954 28
28764 35951 35955 28
28765 35956 35957 28
28766 35956 35958 28
28767 35956 35959 28
28768 35956 35960 28
28769 35961 35962 28
28770 35961 35963 28
28771 35961 35964 28
28772 35961 35965 28
28773 35966 35967 28
28774 35966 35968 28
28775 35966 35969 28
28776 35966 35970 28
28777 35971 35972 28
28778 35971 35973 28
28779 35971 35974 28
28780 35971 35975 28
28781 35976 35977 28
28782 35976 35978 28
28783 35976 35979 28
28784 35976 35980 28
28785 35981 35982 28
28786 35981 35983 28
28787 35981 35984 28
28788 35981 35985 28
28789 35986 35987 28
28790 35986 35988 28
28791 35986 35989 28
28792 35986 35990 28
28793 35991 35992 28
28794 35991 35993 28
28795 35991 35994 28
28796 35991 35995 28
28797 35996 35997 28
28798 35996 35998 28
28799 35996 35999 28
28800 35996 36000 28
28801 36001 36002 28
28802 36001 36003 28
28803 36001 36004 28
28804 36001 36005 28
28805 36006 36007 28
28806 36006 36008 28
28807 36006 36009 28
28808 36006 36010 28
28809 36011 36012 28
28810 36011 36013 28
28811 36011 36014 28
28812 36011 36015 28
28813 36016 36017 28
28814 36016 36018 28
28815 36016 36019 28
28816 36016 36020 28
28817 36021 36022 28
28818 36021 36023 28
28819 36021 36024 28
28820 36021 36025 28
28821 36026 36027 28
28822 36026 36028 28
28823 36026 36029 28
28824 36026 36030 28
28825 36031 36032 28
28826 36031 36033 28
28827 36031 36034 28
28828 36031 36035 28
28829 36036 36037 28
28830 36036 36038 28
28831 36036 36039 28
28832 36036 36040 28
28833 36041 36042 28
28834 36041 36043 28
28835 36041 36044 28
28836 36041 36045 28
28837 36046 36047 28
28838 36046 36048 28
28839 36046 36049 28
28840 36046 36050 28
28841 36051 36052 28
28842 36051 36053 28
28843 36051 36054 28
28844 36051 36055 28
28845 36056 36057 28
28846 36056 36058 28
28847 36056 36059 28
28848 36056 36060 28
28849 36061 36062 28
28850 36061 36063 28
28851 36061 36064 28
28852 36061 36065 28
28853 36066 36067 28
28854 36066 36068 28
28855 36066 36069 28
28856 36066 36070 28
28857 36071 36072 28
28858 36071 36073 28
28859 36071 36074 28
28860 36071 36075 28
28861 36076 36077 28
28862 36076 36078 28
28863 36076 36079 28
28864 36076 36080 28
28865 36081 36082 28
28866 36081 36083 28
28867 36081 36084 28
28868 36081 36085 28
28869 36086 36087 28
28870 36086 36088 28
28871 36086 36089 28
28872 36086 36090 28
28873 36091 36092 28
28874 36091 36093 28
28875 36091 36094 28
28876 36091 36095 28
28877 36096 36097 28
28878 36096 36098 28
28879 36096 36099 28
28880 36096 36100 28
28881 36101 36102 28
28882 36101 36103 28
28883 36101 36104 28
28884 36101 36105 28
28885 36106 36107 28
28886 36106 36108 28
28887 36106 36109 28
28888 36106 36110 28
28889 36111 36112 28
28890 36111 36113 28
28891 36111 36114 28
28892 36111 36115 28
28893 36116 36117 28
28894 36116 36118 28
28895 36116 36119 28
28896 36116 36120 28
28897 36121 36122 28
28898 36121 36123 28
28899 36121 36124 28
28900 36121 36125 28
28901 36126 36127 28
28902 36126 36128 28
28903 36126 36129 28
28904 36126 36130 28
28905 36131 36132 28
28906 36131 36133 28
28907 36131 36134 28
28908 36131 36135 28
28909 36136 36137 28
28910 36136 36138 28
28911 36136 36139 28
28912 36136 36140 28
28913 36141 36142 28
28914 36141 36143 28
28915 36141 36144 28
28916 36141 36145 28
28917 36146 36147 28
28918 36146 36148 28
28919 36146 36149 28
28920 36146 36150 28
28921 36151 36152 28
28922 36151 36153 28
28923 36151 36154 28
28924 36151 36155 28
28925 36156 36157 28
28926 36156 36158 28
28927 36156 36159 28
28928 36156 36160 28
28929 36161 36162 28
28930 36161 36163 28
28931 36161 36164 28
28932 36161 36165 28
28933 36166 36167 28
28934 36166 36168 28
28935 36166 36169 28
28936 36166 36170 28
28937 36171 36172 28
28938 36171 36173 28
28939 36171 36174 28
28940 36171 36175 28
28941 36176 36177 28
28942 36176 36178 28
28943 36176 36179 28
28944 36176 36180 28
28945 36181 36182 28
28946 36181 36183 28
28947 36181 36184 28
28948 36181 36185 28
28949 36186 36187 28
28950 36186 36188 28
28951 36186 36189 28
28952 36186 36190 28
28953 36191 36192 28
28954 36191 36193 28
28955 36191 36194 28
28956 36191 36195 28
28957 36196 36197 28
28958 36196 36198 28
28959 36196 36199 28
28960 36196 36200 28
28961 36201 36202 28
28962 36201 36203 28
28963 36201 36204 28
28964 36201 36205 28
28965 36206 36207 28
28966 36206 36208 28
28967 36206 36209 28
28968 36206 36210 28
28969 36211 36212 28
28970 36211 36213 28
28971 36211 36214 28
28972 36211 36215 28
28973 36216 36217 28
28974 36216 36218 28
28975 36216 36219 28
28976 36216 36220 28
28977 36221 36222 28
28978 36221 36223 28
28979 36221 36224 28
28980 36221 36225 28
28981 36226 36227 28
28982 36226 36228 28
28983 36226 36229 28
28984 36226 36230 28
28985 36231 36232 28
28986 36231 36233 28
28987 36231 36234 28
28988 36231 36235 28
28989 36236 36237 28
28990 36236 36238 28
28991 36236 36239 28
28992 36236 36240 28
28993 36241 36242 28
28994 36241 36243 28
28995 36241 36244 28
28996 36241 36245 28
28997 36246 36247 28
28998 36246 36248 28
28999 36246 36249 28
29000 36246 36250 28
29001 36251 36252 28
29002 36251 36253 28
29003 36251 36254 28
29004 36251 36255 28
29005 36256 36257 28
29006 36256 36258 28
29007 36256 36259 28
29008 36256 36260 28
29009 36261 36262 28
29010 36261 36263 28
29011 36261 36264 28
29012 36261 36265 28
29013 36266 36267 28
29014 36266 36268 28
29015 36266 36269 28
29016 36266 36270 28
29017 36271 36272 28
29018 36271 36273 28
29019 36271 36274 28
29020 36271 36275 28
29021 36276 36277 28
29022 36276 36278 28
29023 36276 36279 28
29024 36276 36280 28
29025 36281 36282 28
29026 36281 36283 28
29027 36281 36284 28
29028 36281 36285 28
29029 36286 36287 28
29030 36286 36288 28
29031 36286 36289 28
29032 36286 36290 28
29033 36291 36292 28
29034 36291 36293 28
29035 36291 36294 28
29036 36291 36295 28
29037 36296 36297 28
29038 36296 36298 28
29039 36296 36299 28
29040 36296 36300 28
29041 36301 36302 28
29042 36301 36303 28
29043 36301 36304 28
29044 36301 36305 28
29045 36306 36307 28
29046 36306 36308 28
29047 36306 36309 28
29048 36306 36310 28
29049 36311 36312 28
29050 36311 36313 28
29051 36311 36314 28
29052 36311 36315 28
29053 36316 36317 28
29054 36316 36318 28
29055 36316 36319 28
29056 36316 36320 28
29057 36321 36322 28
29058 36321 36323 28
29059 36321 36324 28
29060 36321 36325 28
29061 36326 36327 28
29062 36326 36328 28
29063 36326 36329 28
29064 36326 36330 28
29065 36331 36332 28
29066 36331 36333 28
29067 36331 36334 28
29068 36331 36335 28
29069 36336 36337 28
29070 36336 36338 28
29071 36336 36339 28
29072 36336 36340 28
29073 36341 36342 28
29074 36341 36343 28
29075 36341 36344 28
29076 36341 36345 28
29077 36346 36347 28
29078 36346 36348 28
29079 36346 36349 28
29080 36346 36350 28
29081 36351 36352 28
29082 36351 36353 28
29083 36351 36354 28
29084 36351 36355 28
29085 36356 36357 28
29086 36356 36358 28
29087 36356 36359 28
29088 36356 36360 28
29089 36361 36362 28
29090 36361 36363 28
29091 36361 36364 28
29092 36361 36365 28
29093 36366 36367 28
29094 36366 36368 28
29095 36366 36369 28
29096 36366 36370 28
29097 36371 36372 28
29098 36371 36373 28
29099 36371 36374 28
29100 36371 36375 28
29101 36376 36377 28
29102 36376 36378 28
29103 36376 36379 28
29104 36376 36380 28
29105 36381 36382 28
29106 36381 36383 28
29107 36381 36384 28
29108 36381 36385 28
29109 36386 36387 28
29110 36386 36388 28
29111 36386 36389 28
29112 36386 36390 28
29113 36391 36392 28
29114 36391 36393 28
29115 36391 36394 28
29116 36391 36395 28
29117 36396 36397 28
29118 36396 36398 28
29119 36396 36399 28
29120 36396 36400 28
29121 36401 36402 28
29122 36401 36403 28
29123 36401 36404 28
29124 36401 36405 28
29125 36406 36407 28
29126 36406 36408 28
29127 36406 36409 28
29128 36406 36410 28
29129 36411 36412 28
29130 36411 36413 28
29131 36411 36414 28
29132 36411 36415 28
29133 36416 36417 28
29134 36416 36418 28
29135 36416 36419 28
29136 36416 36420 28
29137 36421 36422 28
29138 36421 36423 28
29139 36421 36424 28
29140 36421 36425 28
29141 36426 36427 28
29142 36426 36428 28
29143 36426 36429 28
29144 36426 36430 28
29145 36431 36432 28
29146 36431 36433 28
29147 36431 36434 28
29148 36431 36435 28
29149 36436 36437 28
29150 36436 36438 28
29151 36436 36439 28
29152 36436 36440 28
29153 36441 36442 28
29154 36441 36443 28
29155 36441 36444 28
29156 36441 36445 28
29157 36446 36447 28
29158 36446 36448 28
29159 36446 36449 28
29160 36446 36450 28
29161 36451 36452 28
29162 36451 36453 28
29163 36451 36454 28
29164 36451 36455 28
29165 36456 36457 28
29166 36456 36458 28
29167 36456 36459 28
29168 36456 36460 28
29169 36461 36462 28
29170 36461 36463 28
29171 36461 36464 28
29172 36461 36465 28
29173 36466 36467 28
29174 36466 36468 28
29175 36466 36469 28
29176 36466 36470 28
29177 36471 36472 28
29178 36471 36473 28
29179 36471 36474 28
29180 36471 36475 28
29181 36476 36477 28
29182 36476 36478 28
29183 36476 36479 28
29184 36476 36480 28
29185 36481 36482 28
29186 36481 36483 28
29187 36481 36484 28
29188 36481 36485 28
29189 36486 36487 28
29190 36486 36488 28
29191 36486 36489 28
29192 36486 36490 28
29193 36491 36492 28
29194 36491 36493 28
29195 36491 36494 28
29196 36491 36495 28
29197 36496 36497 28
29198 36496 36498 28
29199 36496 36499 28
29200 36496 36500 28
29201 36501 36502 28
29202 36501 36503 28
29203 36501 36504 28
29204 36501 36505 28
29205 36506 36507 28
29206 36506 36508 28
29207 36506 36509 28
29208 36506 36510 28
29209 36511 36512 28
29210 36511 36513 28
29211 36511 36514 28
29212 36511 36515 28
29213 36516 36517 28
29214 36516 36518 28
29215 36516 36519 28
29216 36516 36520 28
29217 36521 36522 28
29218 36521 36523 28
29219 36521 36524 28
29220 36521 36525 28
29221 36526 36527 28
29222 36526 36528 28
29223 36526 36529 28
29224 36526 36530 28
29225 36531 36532 28
29226 36531 36533 28
29227 36531 36534 28
29228 36531 36535 28
29229 36536 36537 28
29230 36536 36538 28
29231 36536 36539 28
29232 36536 36540 28
29233 36541 36542 28
29234 36541 36543 28
29235 36541 36544 28
29236 36541 36545 28
29237 36546 36547 28
29238 36546 36548 28
29239 36546 36549 28
29240 36546 36550 28
29241 36551 36552 28
29242 36551 36553 28
29243 36551 36554 28
29244 36551 36555 28
29245 36556 36557 28
29246 36556 36558 28
29247 36556 36559 28
29248 36556 36560 28
29249 36561 36562 28
29250 36561 36563 28
29251 36561 36564 28
29252 36561 36565 28
29253 36566 36567 28
29254 36566 36568 28
29255 36566 36569 28
29256 36566 36570 28
29257 36571 36572 28
29258 36571 36573 28
29259 36571 36574 28
29260 36571 36575 28
29261 36576 36577 28
29262 36576 36578 28
29263 36576 36579 28
29264 36576 36580 28
29265 36581 36582 28
29266 36581 36583 28
29267 36581 36584 28
29268 36581 36585 28
29269 36586 36587 28
29270 36586 36588 28
29271 36586 36589 28
29272 36586 36590 28
29273 36591 36592 28
29274 36591 36593 28
29275 36591 36594 28
29276 36591 36595 28
29277 36596 36597 28
29278 36596 36598 28
29279 36596 36599 28
29280 36596 36600 28
29281 36601 36602 28
29282 36601 36603 28
29283 36601 36604 28
29284 36601 36605 28
29285 36606 36607 28
29286 36606 36608 28
29287 36606 36609 28
29288 36606 36610 28
29289 36611 36612 28
29290 36611 36613 28
29291 36611 36614 28
29292 36611 36615 28
29293 36616 36617 28
29294 36616 36618 28
29295 36616 36619 28
29296 36616 36620 28
29297 36621 36622 28
29298 36621 36623 28
29299 36621 36624 28
29300 36621 36625 28
29301 36626 36627 28
29302 36626 36628 28
29303 36626 36629 28
29304 36626 36630 28
29305 36631 36632 28
29306 36631 36633 28
29307 36631 36634 28
29308 36631 36635 28
29309 36636 36637 28
29310 36636 36638 28
29311 36636 36639 28
29312 36636 36640 28
29313 36641 36642 28
29314 36641 36643 28
29315 36641 36644 28
29316 36641 36645 28
29317 36646 36647 28
29318 36646 36648 28
29319 36646 36649 28
29320 36646 36650 28
29321 36651 36652 28
29322 36651 36653 28
29323 36651 36654 28
29324 36651 36655 28
29325 36656 36657 28
29326 36656 36658 28
29327 36656 36659 28
29328 36656 36660 28
29329 36661 36662 28
29330 36661 36663 28
29331 36661 36664 28
29332 36661 36665 28
29333 36666 36667 28
29334 36666 36668 28
29335 36666 36669 28
29336 36666 36670 28
29337 36671 36672 28
29338 36671 36673 28
29339 36671 36674 28
29340 36671 36675 28
29341 36676 36677 28
29342 36676 36678 28
29343 36676 36679 28
29344 36676 36680 28
29345 36681 36682 28
29346 36681 36683 28
29347 36681 36684 28
29348 36681 36685 28
29349 36686 36687 28
29350 36686 36688 28
29351 36686 36689 28
29352 36686 36690 28
29353 36691 36692 28
29354 36691 36693 28
29355 36691 36694 28
29356 36691 36695 28
29357 36696 36697 28
29358 36696 36698 28
29359 36696 36699 28
29360 36696 36700 28
29361 36701 36702 28
29362 36701 36703 28
29363 36701 36704 28
29364 36701 36705 28
29365 36706 36707 28
29366 36706 36708 28
29367 36706 36709 28
29368 36706 36710 28
29369 36711 36712 28
29370 36711 36713 28
29371 36711 36714 28
29372 36711 36715 28
29373 36716 36717 28
29374 36716 36718 28
29375 36716 36719 28
29376 36716 36720 28
29377 36721 36722 28
29378 36721 36723 28
29379 36721 36724 28
29380 36721 36725 28
29381 36726 36727 28
29382 36726 36728 28
29383 36726 36729 28
29384 36726 36730 28
29385 36731 36732 28
29386 36731 36733 28
29387 36731 36734 28
29388 36731 36735 28
29389 36736 36737 28
29390 36736 36738 28
29391 36736 36739 28
29392 36736 36740 28
29393 36741 36742 28
29394 36741 36743 28
29395 36741 36744 28
29396 36741 36745 28
29397 36746 36747 28
29398 36746 36748 28
29399 36746 36749 28
29400 36746 36750 28
29401 36751 36752 28
29402 36751 36753 28
29403 36751 36754 28
29404 36751 36755 28
29405 36756 36757 28
29406 36756 36758 28
29407 36756 36759 28
29408 36756 36760 28
29409 36761 36762 28
29410 36761 36763 28
29411 36761 36764 28
29412 36761 36765 28
29413 36766 36767 28
29414 36766 36768 28
29415 36766 36769 28
29416 36766 36770 28
29417 36771 36772 28
29418 36771 36773 28
29419 36771 36774 28
29420 36771 36775 28
29421 36776 36777 28
29422 36776 36778 28
29423 36776 36779 28
29424 36776 36780 28
29425 36781 36782 28
29426 36781 36783 28
29427 36781 36784 28
29428 36781 36785 28
29429 36786 36787 28
29430 36786 36788 28
29431 36786 36789 28
29432 36786 36790 28
29433 36791 36792 28
29434 36791 36793 28
29435 36791 36794 28
29436 36791 36795 28
29437 36796 36797 28
29438 36796 36798 28
29439 36796 36799 28
29440 36796 36800 28
29441 36801 36802 28
29442 36801 36803 28
29443 36801 36804 28
29444 36801 36805 28
29445 36806 36807 28
29446 36806 36808 28
29447 36806 36809 28
29448 36806 36810 28
29449 36811 36812 28
29450 36811 36813 28
29451 36811 36814 28
29452 36811 36815 28
29453 36816 36817 28
29454 36816 36818 28
29455 36816 36819 28
29456 36816 36820 28
29457 36821 36822 28
29458 36821 36823 28
29459 36821 36824 28
29460 36821 36825 28
29461 36826 36827 28
29462 36826 36828 28
29463 36826 36829 28
29464 36826 36830 28
29465 36831 36832 28
29466 36831 36833 28
29467 36831 36834 28
29468 36831 36835 28
29469 36836 36837 28
29470 36836 36838 28
29471 36836 36839 28
29472 36836 36840 28
29473 36841 36842 28
29474 36841 36843 28
29475 36841 36844 28
29476 36841 36845 28
29477 36846 36847 28
29478 36846 36848 28
29479 36846 36849 28
29480 36846 36850 28
29481 36851 36852 28
29482 36851 36853 28
29483 36851 36854 28
29484 36851 36855 28
29485 36856 36857 28
29486 36856 36858 28
29487 36856 36859 28
29488 36856 36860 28
29489 36861 36862 28
29490 36861 36863 28
29491 36861 36864 28
29492 36861 36865 28
29493 36866 36867 28
29494 36866 36868 28
29495 36866 36869 28
29496 36866 36870 28
29497 36871 36872 28
29498 36871 36873 28
29499 36871 36874 28
29500 36871 36875 28
29501 36876 36877 28
29502 36876 36878 28
29503 36876 36879 28
29504 36876 36880 28
29505 36881 36882 28
29506 36881 36883 28
29507 36881 36884 28
29508 36881 36885 28
29509 36886 36887 28
29510 36886 36888 28
29511 36886 36889 28
29512 36886 36890 28
29513 36891 36892 28
29514 36891 36893 28
29515 36891 36894 28
29516 36891 36895 28
29517 36896 36897 28
29518 36896 36898 28
29519 36896 36899 28
29520 36896 36900 28
29521 36901 36902 28
29522 36901 36903 28
29523 36901 36904 28
29524 36901 36905 28
29525 36906 36907 28
29526 36906 36908 28
29527 36906 36909 28
29528 36906 36910 28
29529 36911 36912 28
29530 36911 36913 28
29531 36911 36914 28
29532 36911 36915 28
29533 36916 36917 28
29534 36916 36918 28
29535 36916 36919 28
29536 36916 36920 28
29537 36921 36922 28
29538 36921 36923 28
29539 36921 36924 28
29540 36921 36925 28
29541 36926 36927 28
29542 36926 36928 28
29543 36926 36929 28
29544 36926 36930 28
29545 36931 36932 28
29546 36931 36933 28
29547 36931 36934 28
29548 36931 36935 28
29549 36936 36937 28
29550 36936 36938 28
29551 36936 36939 28
29552 36936 36940 28
29553 36941 36942 28
29554 36941 36943 28
29555 36941 36944 28
29556 36941 36945 28
29557 36946 36947 28
29558 36946 36948 28
29559 36946 36949 28
29560 36946 36950 28
29561 36951 36952 28
29562 36951 36953 28
29563 36951 36954 28
29564 36951 36955 28
29565 36956 36957 28
29566 36956 36958 28
29567 36956 36959 28
29568 36956 36960 28
29569 36961 36962 28
29570 36961 36963 28
29571 36961 36964 28
29572 36961 36965 28
29573 36966 36967 28
29574 36966 36968 28
29575 36966 36969 28
29576 36966 36970 28
29577 36971 36972 28
29578 36971 36973 28
29579 36971 36974 28
29580 36971 36975 28
29581 36976 36977 28
29582 36976 36978 28
29583 36976 36979 28
29584 36976 36980 28
29585 36981 36982 28
29586 36981 36983 28
29587 36981 36984 28
29588 36981 36985 28
29589 36986 36987 28
29590 36986 36988 28
29591 36986 36989 28
29592 36986 36990 28
29593 36991 36992 28
29594 36991 36993 28
29595 36991 36994 28
29596 36991 36995 28
29597 36996 36997 28
29598 36996 36998 28
29599 36996 36999 28
29600 36996 37000 28
29601 37001 37002 28
29602 37001 37003 28
29603 37001 37004 28
29604 37001 37005 28
29605 37006 37007 28
29606 37006 37008 28
29607 37006 37009 28
29608 37006 37010 28
29609 37011 37012 28
29610 37011 37013 28
29611 37011 37014 28
29612 37011 37015 28
29613 37016 37017 28
29614 37016 37018 28
29615 37016 37019 28
29616 37016 37020 28
29617 37021 37022 28
29618 37021 37023 28
29619 37021 37024 28
29620 37021 37025 28
29621 37026 37027 28
29622 37026 37028 28
29623 37026 37029 28
29624 37026 37030 28
29625 37031 37032 28
29626 37031 37033 28
29627 37031 37034 28
29628 37031 37035 28
29629 37036 37037 28
29630 37036 37038 28
29631 37036 37039 28
29632 37036 37040 28
29633 37041 37042 28
29634 37041 37043 28
29635 37041 37044 28
29636 37041 37045 28
29637 37046 37047 28
29638 37046 37048 28
29639 37046 37049 28
29640 37046 37050 28
29641 37051 37052 28
29642 37051 37053 28
29643 37051 37054 28
29644 37051 37055 28
29645 37056 37057 28
29646 37056 37058 28
29647 37056 37059 28
29648 37056 37060 28
29649 37061 37062 28
29650 37061 37063 28
29651 37061 37064 28
29652 37061 37065 28
29653 37066 37067 28
29654 37066 37068 28
29655 37066 37069 28
29656 37066 37070 28
29657 37071 37072 28
29658 37071 37073 28
29659 37071 37074 28
29660 37071 37075 28
29661 37076 37077 28
29662 37076 37078 28
29663 37076 37079 28
29664 37076 37080 28
29665 37081 37082 28
29666 37081 37083 28
29667 37081 37084 28
29668 37081 37085 28
29669 37086 37087 28
29670 37086 37088 28
29671 37086 37089 28
29672 37086 37090 28
29673 37091 37092 28
29674 37091 37093 28
29675 37091 37094 28
29676 37091 37095 28
29677 37096 37097 28
29678 37096 37098 28
29679 37096 37099 28
29680 37096 37100 28
29681 37101 37102 28
29682 37101 37103 28
29683 37101 37104 28
29684 37101 37105 28
29685 37106 37107 28
29686 37106 37108 28
29687 37106 37109 28
29688 37106 37110 28
29689 37111 37112 28
29690 37111 37113 28
29691 37111 37114 28
29692 37111 37115 28
29693 37116 37117 28
29694 37116 37118 28
29695 37116 37119 28
29696 37116 37120 28
29697 37121 37122 28
29698 37121 37123 28
29699 37121 37124 28
29700 37121 37125 28
29701 37126 37127 28
29702 37126 37128 28
29703 37126 37129 28
29704 37126 37130 28
29705 37131 37132 28
29706 37131 37133 28
29707 37131 37134 28
29708 37131 37135 28
29709 37136 37137 28
29710 37136 37138 28
29711 37136 37139 28
29712 37136 37140 28
29713 37141 37142 28
29714 37141 37143 28
29715 37141 37144 28
29716 37141 37145 28
29717 37146 37147 28
29718 37146 37148 28
29719 37146 37149 28
29720 37146 37150 28
29721 37151 37152 28
29722 37151 37153 28
29723 37151 37154 28
29724 37151 37155 28
29725 37156 37157 28
29726 37156 37158 28
29727 37156 37159 28
29728 37156 37160 28
29729 37161 37162 28
29730 37161 37163 28
29731 37161 37164 28
29732 37161 37165 28
29733 37166 37167 28
29734 37166 37168 28
29735 37166 37169 28
29736 37166 37170 28
29737 37171 37172 28
29738 37171 37173 28
29739 37171 37174 28
29740 37171 37175 28
29741 37176 37177 28
29742 37176 37178 28
29743 37176 37179 28
29744 37176 37180 28
29745 37181 37182 28
29746 37181 37183 28
29747 37181 37184 28
29748 37181 37185 28
29749 37186 37187 28
29750 37186 37188 28
29751 37186 37189 28
29752 37186 37190 28
29753 37191 37192 28
29754 37191 37193 28
29755 37191 37194 28
29756 37191 37195 28
29757 37196 37197 28
29758 37196 37198 28
29759 37196 37199 28
29760 37196 37200 28
29761 37201 37202 28
29762 37201 37203 28
29763 37201 37204 28
29764 37201 37205 28
29765 37206 37207 28
29766 37206 37208 28
29767 37206 37209 28
29768 37206 37210 28
29769 37211 37212 28
29770 37211 37213 28
29771 37211 37214 28
29772 37211 37215 28
29773 37216 37217 28
29774 37216 37218 28
29775 37216 37219 28
29776 37216 37220 28
29777 37221 37222 28
29778 37221 37223 28
29779 37221 37224 28
29780 37221 37225 28
29781 37226 37227 28
29782 37226 37228 28
29783 37226 37229 28
29784 37226 37230 28
29785 37231 37232 28
29786 37231 37233 28
29787 37231 37234 28
29788 37231 37235 28
29789 37236 37237 28
29790 37236 37238 28
29791 37236 37239 28
29792 37236 37240 28
29793 37241 37242 28
29794 37241 37243 28
29795 37241 37244 28
29796 37241 37245 28
29797 37246 37247 28
29798 37246 37248 28
29799 37246 37249 28
29800 37246 37250 28
29801 37251 37252 28
29802 37251 37253 28
29803 37251 37254 28
29804 37251 37255 28
29805 37256 37257 28
29806 37256 37258 28
29807 37256 37259 28
29808 37256 37260 28
29809 37261 37262 28
29810 37261 37263 28
29811 37261 37264 28
29812 37261 37265 28
29813 37266 37267 28
29814 37266 37268 28
29815 37266 37269 28
29816 37266 37270 28
29817 37271 37272 28
29818 37271 37273 28
29819 37271 37274 28
29820 37271 37275 28
29821 37276 37277 28
29822 37276 37278 28
29823 37276 37279 28
29824 37276 37280 28
29825 37281 37282 28
29826 37281 37283 28
29827 37281 37284 28
29828 37281 37285 28
29829 37286 37287 28
29830 37286 37288 28
29831 37286 37289 28
29832 37286 37290 28
29833 37291 37292 28
29834 37291 37293 28
29835 37291 37294 28
29836 37291 37295 28
29837 37296 37297 28
29838 37296 37298 28
29839 37296 37299 28
29840 37296 37300 28
29841 37301 37302 28
29842 37301 37303 28
29843 37301 37304 28
29844 37301 37305 28
29845 37306 37307 28
29846 37306 37308 28
29847 37306 37309 28
29848 37306 37310 28
29849 37311 37312 28
29850 37311 37313 28
29851 37311 37314 28
29852 37311 37315 28
29853 37316 37317 28
29854 37316 37318 28
29855 37316 37319 28
29856 37316 37320 28
29857 37321 37322 28
29858 37321 37323 28
29859 37321 37324 28
29860 37321 37325 28
29861 37326 37327 28
29862 37326 37328 28
29863 37326 37329 28
29864 37326 37330 28
29865 37331 37332 28
29866 37331 37333 28
29867 37331 37334 28
29868 37331 37335 28
29869 37336 37337 28
29870 37336 37338 28
29871 37336 37339 28
29872 37336 37340 28
29873 37341 37342 28
29874 37341 37343 28
29875 37341 37344 28
29876 37341 37345 28
29877 37346 37347 28
29878 37346 37348 28
29879 37346 37349 28
29880 37346 37350 28
29881 37351 37352 28
29882 37351 37353 28
29883 37351 37354 28
29884 37351 37355 28
29885 37356 37357 28
29886 37356 37358 28
29887 37356 37359 28
29888 37356 37360 28
29889 37361 37362 28
29890 37361 37363 28
29891 37361 37364 28
29892 37361 37365 28
29893 37366 37367 28
29894 37366 37368 28
29895 37366 37369 28
29896 37366 37370 28
29897 37371 37372 28
29898 37371 37373 28
29899 37371 37374 28
29900 37371 37375 28
29901 37376 37377 28
29902 37376 37378 28
29903 37376 37379 28
29904 37376 37380 28
29905 37381 37382 28
29906 37381 37383 28
29907 37381 37384 28
29908 37381 37385 28
29909 37386 37387 28
29910 37386 37388 28
29911 37386 37389 28
29912 37386 37390 28
29913 37391 37392 28
29914 37391 37393 28
29915 37391 37394 28
29916 37391 37395 28
29917 37396 37397 28
29918 37396 37398 28
29919 37396 37399 28
29920 37396 37400 28
29921 37401 37402 28
29922 37401 37403 28
29923 37401 37404 28
29924 37401 37405 28
29925 37406 37407 28
29926 37406 37408 28
29927 37406 37409 28
29928 37406 37410 28
29929 37411 37412 28
29930 37411 37413 28
29931 37411 37414 28
29932 37411 37415 28
29933 37416 37417 28
29934 37416 37418 28
29935 37416 37419 28
29936 37416 37420 28
29937 37421 37422 28
29938 37421 37423 28
29939 37421 37424 28
29940 37421 37425 28
29941 37426 37427 28
29942 37426 37428 28
29943 37426 37429 28
29944 37426 37430 28
29945 37431 37432 28
29946 37431 37433 28
29947 37431 37434 28
29948 37431 37435 28
29949 37436 37437 28
29950 37436 37438 28
29951 37436 37439 28
29952 37436 37440 28
29953 37441 37442 28
29954 37441 37443 28
29955 37441 37444 28
29956 37441 37445 28
29957 37446 37447 28
29958 37446 37448 28
29959 37446 37449 28
29960 37446 37450 28
29961 37451 37452 28
29962 37451 37453 28
29963 37451 37454 28
29964 37451 37455 28
29965 37456 37457 28
29966 37456 37458 28
29967 37456 37459 28
29968 37456 37460 28
29969 37461 37462 28
29970 37461 37463 28
29971 37461 37464 28
29972 37461 37465 28
29973 37466 37467 28
29974 37466 37468 28
29975 37466 37469 28
29976 37466 37470 28
29977 37471 37472 28
29978 37471 37473 28
29979 37471 37474 28
29980 37471 37475 28
29981 37476 37477 28
29982 37476 37478 28
29983 37476 37479 28
29984 37476 37480 28
29985 37481 37482 28
29986 37481 37483 28
29987 37481 37484 28
29988 37481 37485 28
29989 37486 37487 28
29990 37486 37488 28
29991 37486 37489 28
29992 37486 37490 28
29993 37491 37492 28
29994 37491 37493 28
29995 37491 37494 28
29996 37491 37495 28
29997 37496 37497 28
29998 37496 37498 28
29999 37496 37499 28
30000 37496 37500 28
@<TRIPOS>CRYSIN
145.57854949536343 145.57854949536343 145.57854949536343 90 90 90 1 1
